*GROWTH ASPECTS OUTPUT FILE

*DSSAT Cropping System Model Ver. 4.5.1.023 -Stub         AUG 13, 2014; 14:02:59
                                                                                
*RUN   1        : MACH0001_1                MZCER045 MACH0001    1              
 MODEL          : MZCER045 - Maize                                              
 EXPERIMENT     : MACH0001 MZ                                                   
 DATA PATH      :                                                               
 TREATMENT  1   : MACH0001_1                MZCER045                            
  
!                                                                                                                                                                                                                                      Root Dens. (cm/cm3) by soil depth (cm):
!                                                                                                                                                                                                                                      0-5    5-15   15-30   30-40   40-50   50-61   61-71   71-82  82-111 111-140
@YEAR DOY   DAS   DAP   L#SD   GSTD   LAID   LWAD   SWAD   GWAD   RWAD   VWAD   CWAD   G#AD   GWGD   HIAD   PWAD   P#AD   WSPD   WSGD   NSTD   EWSD  PST1A  PST2A   KSTD   LN%D   SH%D   HIPD   PWDD   PWTD     SLAD   CHTD   CWID   RDPD    RL1D    RL2D    RL3D    RL4D    RL5D    RL6D    RL7D    RL8D    RL9D   RL10D   CDAD   LDAD   SDAD   SNW0C   SNW1C  DTTD
 1999 105    31     0    0.0      0   0.00      0      0      0      0      0      0      0    0.0  0.000      0      0  0.000  0.000  0.000  0.000  0.000  0.000  0.000   0.00   0.00   0.00      0      0      0.0   0.00   0.00   0.05    0.00    0.00    0.00    0.00    0.00    0.00    0.00    0.00    0.00    0.00      0      0      0       0       0 13.44
 1999 106    32     1    0.0      0   0.00      0      0      0      0      0      0      0    0.0  0.000      0      0  0.000  0.000  0.000  0.000  0.000  0.000  0.000   0.00   0.00   0.00      0      0      0.0   0.00   0.00   0.07    0.00    0.00    0.00    0.00    0.00    0.00    0.00    0.00    0.00    0.00      0      0      0       0       0 14.94
 1999 107    33     2    0.0      0   0.00      0      0      0      0      0      0      0    0.0  0.000      0      0  0.000  0.000  0.000  0.000  0.000  0.000  0.000   0.00   0.00   0.00      0      0      0.0   0.00   0.00   0.09    0.00    0.00    0.00    0.00    0.00    0.00    0.00    0.00    0.00    0.00      0      0      0       0       0 14.38
 1999 108    34     3    0.0      0   0.00      0      0      0      0      0      0      0    0.0  0.000      0      0  0.000  0.000  0.000  0.000  0.000  0.000  0.000   0.00   0.00   0.00      0      0      0.0   0.00   0.00   0.12    0.00    0.00    0.00    0.00    0.00    0.00    0.00    0.00    0.00    0.00      0      0      0       0       0 15.01
 1999 109    35     4    0.0      0   0.00      0      0      0      0      0      0      0    0.0  0.000      0      0  0.000  0.000  0.000  0.000  0.000  0.000  0.000   0.00   0.00   0.00      0      0      0.0   0.00   0.00   0.14    0.00    0.00    0.00    0.00    0.00    0.00    0.00    0.00    0.00    0.00      0      0      0       0       0 14.11
 1999 110    36     5    0.0      0   0.00      0      0      0      0      0      0      0    0.0  0.000      0      0  0.000  0.000  0.000  0.000  0.000  0.000  0.000   0.00   0.00   0.00      0      0      0.0   0.00   0.00   0.16    0.00    0.00    0.00    0.00    0.00    0.00    0.00    0.00    0.00    0.00      0      0      0       0       0 15.13
 1999 111    37     6    0.0      0   0.00      0      0      0      0      0      0      0    0.0  0.000      0      0  0.000  0.000  0.000  0.000  0.000  0.000  0.000   0.00   0.00   0.00      0      0      0.0   0.00   0.00   0.18    0.00    0.00    0.00    0.00    0.00    0.00    0.00    0.00    0.00    0.00      0      0      0       0       0 15.05
 1999 112    38     7    2.0      1   0.00      7      7      0      7     14     14      0    0.0  0.000      0      0  0.000  0.000  0.012  0.000  0.000  0.000  0.000   4.40   0.00   0.00      0      0     26.0   0.00   0.00   0.20    0.14    0.07    0.01    0.00    0.00    0.00    0.00    0.00    0.00    0.00      0      0      0       0       0 13.97
 1999 113    39     8    2.0      1   0.00      7      7      0      7     14     14      0    0.0  0.000      0      0  0.000  0.000  0.001  0.000  0.000  0.000  0.000   4.40   0.00   0.00      0      0     48.7   0.00   0.00   0.21    0.14    0.07    0.01    0.00    0.00    0.00    0.00    0.00    0.00    0.00      0      0      0       0       0 12.97
 1999 114    40     9    2.0      1   0.01      7      7      0      8     14     14      0    0.0  0.000      0      0  0.000  0.000  0.000  0.000  0.000  0.000  0.000   4.40   0.00   0.00      0      0     77.0   0.00   0.00   0.22    0.14    0.07    0.01    0.00    0.00    0.00    0.00    0.00    0.00    0.00      0      0      0       0       0 14.13
 1999 115    41    10    3.0      1   0.01      7      7      0      8     14     14      0    0.0  0.000      0      0  0.000  0.000  0.000  0.000  0.000  0.000  0.000   4.40   0.00   0.00      0      0    105.3   0.01   0.00   0.24    0.15    0.08    0.01    0.00    0.00    0.00    0.00    0.00    0.00    0.00      0      0      0       0       0 12.94
 1999 116    42    11    3.0      1   0.01      7      7      0      9     14     14      0    0.0  0.000      0      0  0.000  0.000  0.000  0.000  0.000  0.000  0.000   4.40   0.00   0.00      0      0    136.0   0.01   0.00   0.25    0.15    0.09    0.01    0.00    0.00    0.00    0.00    0.00    0.00    0.00      0      0      0       0       0 12.95
 1999 117    43    12    4.0      1   0.02      7      7      0     10     14     14      0    0.0  0.000      0      0  0.000  0.000  0.000  0.000  0.000  0.000  0.000   4.40   0.00   0.00      0      0    243.2   0.01   0.00   0.26    0.16    0.10    0.02    0.00    0.00    0.00    0.00    0.00    0.00    0.00      0      0      0       0       0 13.42
 1999 118    44    13    4.0      1   0.03      8      7      0     12     15     15      0    0.0  0.000      0      0  0.000  0.000  0.000  0.000  0.000  0.000  0.000   4.21   0.00   0.00      0      0    337.4   0.02   0.00   0.27    0.18    0.11    0.03    0.00    0.00    0.00    0.00    0.00    0.00    0.00      0      0      0       0       0 13.71
 1999 119    45    14    4.0      1   0.04     12      7      0     13     19     19      0    0.0  0.000      0      0  0.000  0.000  0.000  0.000  0.000  0.000  0.000   3.30   0.00   0.00      0      0    309.5   0.03   0.00   0.29    0.19    0.12    0.03    0.00    0.00    0.00    0.00    0.00    0.00    0.00      0      0      0       0       0 14.13
 1999 120    46    15    5.0      2   0.05     15      7      0     14     22     22      0    0.0  0.000      0      0  0.000  0.000  0.000  0.000  0.000  0.000  0.000   3.19   0.00   0.00      0      0    312.1   0.04   0.00   0.30    0.19    0.13    0.04    0.00    0.00    0.00    0.00    0.00    0.00    0.00      0      0      0       0       0 12.82
 1999 121    47    16    5.0      2   0.06     21      7      0     16     28     28      0    0.0  0.000      0      0  0.000  0.000  0.008  0.000  0.000  0.000  0.000   3.11   0.00   0.00      0      0    292.9   0.05   0.00   0.31    0.20    0.14    0.05    0.00    0.00    0.00    0.00    0.00    0.00    0.00      0      0      0       0       0 13.24
 1999 122    48    17    6.0      2   0.08     28      7      0     20     35     35      0    0.0  0.000      0      0  0.000  0.000  0.000  0.000  0.000  0.000  0.000   3.07   0.00   0.00      0      0    276.5   0.07   0.00   0.33    0.21    0.15    0.06    0.00    0.00    0.00    0.00    0.00    0.00    0.00      0      0      0       0       0 13.44
 1999 123    49    18    6.0      2   0.09     36      7      0     25     43     43      0    0.0  0.000      0      0  0.000  0.000  0.000  0.006  0.000  0.000  0.000   3.83   0.00   0.00      0      0    262.9   0.08   0.00   0.34    0.22    0.17    0.09    0.01    0.00    0.00    0.00    0.00    0.00    0.00      0      0      0       0       0 13.35
 1999 124    50    19    6.0      2   0.11     45      7      0     28     52     52      0    0.0  0.000      0      0  0.000  0.000  0.000  0.016  0.000  0.000  0.000   3.75   0.00   0.00      0      0    251.2   0.10   0.00   0.35    0.23    0.18    0.10    0.02    0.00    0.00    0.00    0.00    0.00    0.00      0      0      0       0       0 13.26
 1999 125    51    20    7.0      3   0.13     55      7      0     36     62     62      0    0.0  0.000      0      0  0.000  0.000  0.000  0.024  0.000  0.000  0.000   3.65   0.00   0.00      0      0    240.3   0.12   0.00   0.36    0.26    0.21    0.13    0.03    0.00    0.00    0.00    0.00    0.00    0.00      0      0      0       0       1 13.52
 1999 126    52    21    7.0      3   0.15     67      7      0     47     74     74      0    0.0  0.000      0      0  0.000  0.000  0.000  0.038  0.000  0.000  0.000   3.59   0.00   0.00      0      0    231.7   0.14   0.00   0.38    0.30    0.25    0.17    0.06    0.00    0.00    0.00    0.00    0.00    0.00      0      0      0       0       1 13.58
 1999 127    53    22    7.0      3   0.18     80      7      0     57     87     87      0    0.0  0.000      0      0  0.000  0.000  0.000  0.057  0.000  0.000  0.000   3.53   0.00   0.00      0      0    224.0   0.16   0.00   0.41    0.33    0.29    0.21    0.09    0.00    0.00    0.00    0.00    0.00    0.00      0      0      0       0       1 13.66
 1999 128    54    23    8.0      3   0.20     94      8      0     68    102    102      0    0.0  0.000      0      0  0.000  0.000  0.000  0.073  0.000  0.000  0.000   3.47   0.00   0.00      0      0    216.9   0.18   0.00   0.42    0.38    0.34    0.26    0.13    0.00    0.00    0.00    0.00    0.00    0.00      0      0      0       0       1 13.60
 1999 129    55    24    8.0      3   0.23    110      9      0     84    119    119      0    0.0  0.000      0      0  0.000  0.000  0.000  0.083  0.000  0.000  0.000   3.41   0.00   0.00      0      0    210.5   0.20   0.00   0.44    0.46    0.42    0.33    0.18    0.01    0.00    0.00    0.00    0.00    0.00      0      0      0       0       2 13.35
 1999 130    56    25    8.0      3   0.26    126     10      0    104    136    136      0    0.0  0.000      0      0  0.000  0.000  0.000  0.120  0.000  0.000  0.000   3.36   0.00   0.00      0      0    205.1   0.23   0.00   0.46    0.52    0.49    0.40    0.23    0.03    0.00    0.00    0.00    0.00    0.00      0      0      0       0       2 12.54
 1999 131    57    26    9.0      3   0.29    145     12      0    119    157    157      0    0.0  0.000      0      0  0.000  0.000  0.000  0.140  0.000  0.000  0.000   3.30   0.00   0.00      0      0    199.7   0.25   0.00   0.48    0.55    0.52    0.44    0.27    0.04    0.00    0.00    0.00    0.00    0.00      0      0      0       0       3 13.45
 1999 132    58    27    9.0      3   0.32    165     15      0    137    180    180      0    0.0  0.000      0      0  0.000  0.000  0.000  0.134  0.000  0.000  0.000   3.25   0.00   0.00      0      0    194.6   0.28   0.00   0.50    0.60    0.57    0.49    0.31    0.08    0.00    0.00    0.00    0.00    0.00      0      0      0       0       3 13.60
 1999 133    59    28    9.0      3   0.35    186     18      0    156    204    204      0    0.0  0.000      0      0  0.000  0.000  0.000  0.131  0.000  0.000  0.000   3.20   0.00   0.00      0      0    190.2   0.31   0.00   0.52    0.68    0.65    0.56    0.36    0.11    0.00    0.00    0.00    0.00    0.00      0      0      0       0       4 12.27
 1999 134    60    29   10.0      3   0.39    210     24      0    174    234    234      0    0.0  0.000      0      0  0.000  0.000  0.000  0.163  0.000  0.000  0.000   3.15   0.00   0.00      0      0    185.7   0.34   0.00   0.54    0.73    0.71    0.62    0.41    0.15    0.01    0.00    0.00    0.00    0.00      0      0      0       0       5 13.51
 1999 135    61    30   10.0      3   0.43    238     31      0    199    269    269      0    0.0  0.000      0      0  0.000  0.000  0.000  0.148  0.000  0.000  0.000   3.10   0.00   0.00      0      0    181.2   0.38   0.00   0.56    0.83    0.80    0.71    0.48    0.20    0.03    0.00    0.00    0.00    0.00      0      0      0       0       5 13.95
 1999 136    62    31   10.0      3   0.48    269     40      0    220    309    309      0    0.0  0.000      0      0  0.000  0.000  0.000  0.141  0.000  0.000  0.000   3.05   0.00   0.00      0      0    176.9   0.42   0.00   0.58    0.90    0.87    0.77    0.54    0.24    0.04    0.00    0.00    0.00    0.00      0      0      0       0       6 14.11
 1999 137    63    32   11.0      3   0.53    304     52      0    246    357    358      0    0.0  0.000      2      0  0.000  0.000  0.000  0.138  0.000  0.000  0.000   3.01   0.00   0.00      0      2    172.6   0.46   0.00   0.60    0.99    0.97    0.86    0.61    0.28    0.07    0.00    0.00    0.00    0.00      0      0      0       0       8 14.71
 1999 138    64    33   11.0      3   0.58    342     66      0    277    408    412      0    0.0  0.000      4      0  0.000  0.000  0.000  0.136  0.000  0.000  0.000   2.96   0.00   0.01      0      4    168.7   0.51   0.00   0.62    1.10    1.07    0.96    0.69    0.34    0.11    0.00    0.00    0.00    0.00      0      0      0       0       9 14.05
 1999 139    65    34   11.0      3   0.62    373     79      0    311    452    459      0    0.0  0.000      7      0  0.000  0.000  0.000  0.133  0.000  0.000  0.000   2.92   0.00   0.01      0      7    165.8   0.54   0.00   0.63    1.23    1.20    1.08    0.78    0.40    0.15    0.00    0.00    0.00    0.00      0      0      0       0      10 11.15
 1999 140    66    35   12.0      3   0.68    417    146      0    316    563    573      0    0.0  0.000     10      0  0.000  0.000  0.000  0.129  0.000  0.000  0.000   2.90   0.00   0.02      0     10    162.2   0.59   0.00   0.65    1.22    1.19    1.08    0.78    0.40    0.15    0.00    0.00    0.00    0.00      0      0      0       0      12 11.30
 1999 141    67    36   12.0      3   0.73    457    219      0    323    676    691      0    0.0  0.000     15      0  0.000  0.000  0.000  0.155  0.000  0.000  0.000   2.86   0.00   0.02      0     15    159.3   0.64   0.00   0.66    1.22    1.20    1.08    0.78    0.41    0.16    0.00    0.00    0.00    0.00      0      0      0       0      13 11.00
 1999 142    68    37   12.0      3   0.78    497    297      0    355    794    819      0    0.0  0.000     25      0  0.000  0.000  0.000  0.154  0.000  0.000  0.000   2.83   0.00   0.03      0     25    156.7   0.68   0.00   0.67    1.32    1.30    1.18    0.86    0.46    0.20    0.01    0.00    0.00    0.00      0      0      0       0      15 12.40
 1999 143    69    38   13.0      3   0.82    533    372      0    384    905    940      0    0.0  0.000     36      0  0.000  0.000  0.000  0.151  0.000  0.000  0.000   2.78   0.00   0.04      0     36    154.6   0.72   0.00   0.69    1.40    1.38    1.26    0.92    0.51    0.24    0.02    0.00    0.00    0.00      0      0      0       0      17 12.10
 1999 144    70    39   13.0      3   0.87    567    450      0    399   1017   1064      0    0.0  0.000     48      0  0.000  0.000  0.000  0.155  0.000  0.000  0.000   2.73   0.00   0.04      0     48    152.7   0.76   0.00   0.70    1.42    1.40    1.28    0.94    0.53    0.25    0.03    0.00    0.00    0.00      0      0      0       0      19 12.70
 1999 145    71    40   13.0      3   0.91    599    528      0    416   1127   1190      0    0.0  0.000     63      0  0.000  0.000  0.000  0.152  0.000  0.000  0.000   2.69   0.00   0.05      0     63    151.0   0.79   0.00   0.72    1.46    1.44    1.31    0.97    0.55    0.28    0.04    0.00    0.00    0.00      0      0      0       0      21 13.15
 1999 146    72    41   14.0      3   0.94    631    600      0    439   1231   1315      0    0.0  0.000     84      0  0.000  0.000  0.000  0.132  0.000  0.000  0.000   2.66   0.00   0.06      0     84    149.5   0.83   0.00   0.73    1.55    1.54    1.40    1.04    0.60    0.31    0.05    0.00    0.00    0.00      0      0      0       0      23 12.90
 1999 147    73    42   14.0      3   0.98    658    661      0    468   1319   1429      0    0.0  0.000    110      0  0.000  0.000  0.000  0.112  0.000  0.000  0.000   2.63   0.00   0.08      0    110    148.2   0.85   0.00   0.74    1.68    1.66    1.52    1.13    0.66    0.36    0.06    0.00    0.00    0.00      0      0      0       0      25 11.65
 1999 148    74    43   14.0      3   1.01    684    712      0    507   1396   1539      0    0.0  0.000    144      0  0.000  0.000  0.000  0.101  0.000  0.000  0.000   2.60   0.00   0.09      0    144    147.1   0.88   0.00   0.76    1.84    1.82    1.67    1.25    0.74    0.42    0.08    0.00    0.00    0.00      0      0      0       0      27 11.20
 1999 149    75    44   15.0      3   1.04    712    772      0    531   1484   1666      0    0.0  0.000    182      0  0.000  0.000  0.000  0.087  0.000  0.000  0.000   2.57   0.00   0.11      0    182    145.9   0.91   0.00   0.77    1.95    1.93    1.77    1.32    0.79    0.46    0.09    0.00    0.00    0.00      0      0      0       0      30 12.85
 1999 150    76    45   15.0      3   1.07    739    831      0    536   1569   1786      0    0.0  0.000    216      0  0.000  0.000  0.000  0.076  0.000  0.000  0.000   2.52   0.00   0.12      0    216    144.9   0.94   0.00   0.78    1.97    1.95    1.79    1.34    0.81    0.47    0.10    0.00    0.00    0.00      0      0      0       0      32 12.10
 1999 151    77    46   15.0      3   1.10    764    884      0    540   1649   1903      0    0.0  0.000    255      0  0.000  0.000  0.000  0.063  0.000  0.000  0.000   2.48   0.00   0.13      0    255    143.9   0.96   0.00   0.80    1.97    1.97    1.81    1.36    0.82    0.47    0.10    0.00    0.00    0.00      0      0      0       0      35 11.75
 1999 152    78    47   15.0      3   1.13    787    927      0    543   1714   2003      0    0.0  0.000    289      0  0.000  0.000  0.000  0.050  0.000  0.000  0.000   2.44   0.00   0.14      0    289    143.1   0.99   0.00   0.81    1.96    1.99    1.82    1.37    0.82    0.48    0.10    0.00    0.00    0.00      0      0      0       0      38 10.55
 1999 153    79    48   15.0      3   1.16    816    949      0    579   1765   2136      0    0.0  0.000    371      0  0.000  0.000  0.000  0.022  0.000  0.000  0.000   2.47   0.00   0.17      0    371    142.0   1.02   0.00   0.82    1.95    2.16    1.99    1.50    0.91    0.54    0.12    0.01    0.00    0.00      0      0      0       0      41 12.65
 1999 154    80    49   15.0      3   1.19    843    961      0    611   1804   2256      0    0.0  0.000    452      0  0.000  0.000  0.000  0.002  0.000  0.000  0.000   2.43   0.00   0.20      0    452    141.1   1.04   0.00   0.82    2.08    2.29    2.11    1.59    0.97    0.59    0.14    0.01    0.00    0.00      0      0      0       0      43 11.15
 1999 155    81    50   15.0      3   1.22    872    985      0    622   1856   2383      0    0.0  0.000    526      0  0.000  0.000  0.000  0.002  0.000  0.000  0.000   2.39   0.00   0.22      0    526    140.2   1.07   0.00   0.82    2.13    2.34    2.15    1.63    1.00    0.61    0.14    0.01    0.00    0.00      0      0      0       0      46 11.70
 1999 156    82    51   15.0      3   1.25    899    987      0    646   1886   2506      0    0.0  0.000    619      0  0.000  0.000  0.000  0.001  0.000  0.000  0.000   2.38   0.00   0.25      0    619    139.3   1.10   0.00   0.82    2.19    2.45    2.25    1.71    1.05    0.65    0.15    0.02    0.00    0.00      0      0      0       0      50 11.40
 1999 157    83    52   15.0      4   1.19    889   1034      0    648   1923   2615      0    0.0  0.000    692      0  0.000  0.000  0.000  0.001  0.000  0.000  0.000   2.33   0.00   0.26      0    692    134.1   1.10   0.00   0.82    2.18    2.46    2.27    1.72    1.06    0.65    0.16    0.02    0.00    0.00      0      0      0       0      50 10.65
 1999 158    84    53   15.0      4   1.19    878   1099      0    653   1977   2787      0    0.0  0.000    810      0  0.000  0.000  0.000  0.001  0.000  0.000  0.000   2.36   0.00   0.29      0    810    135.4   1.10   0.00   0.82    2.17    2.49    2.29    1.73    1.07    0.66    0.16    0.02    0.00    0.00      0      0      0       0      53  9.50
 1999 159    85    54   15.0      4   1.18    866   1148      0    657   2014   2929      0    0.0  0.000    915      0  0.000  0.000  0.000  0.000  0.000  0.000  0.000   2.31   0.00   0.31      0    915    136.8   1.10   0.00   0.82    2.16    2.51    2.31    1.75    1.08    0.67    0.16    0.02    0.00    0.00      0      0      0       0      53 12.95
 1999 160    86    55   15.0      4   1.18    854   1180      0    658   2034   3033      0    0.0  0.000    999      0  0.000  0.000  0.000  0.000  0.000  0.000  0.000   2.29   0.00   0.33      0    999    138.3   1.10   0.00   0.82    2.15    2.51    2.32    1.76    1.09    0.67    0.16    0.02    0.00    0.00      0      0      0       0      53 12.70
 1999 161    87    56   15.0      4   1.18    841   1250      0    662   2091   3184      0    0.0  0.000   1092      0  0.000  0.240  0.000  0.000  0.000  0.000  0.000   2.23   0.00   0.34      0   1092    139.9   1.10   0.00   0.82    2.14    2.53    2.34    1.77    1.10    0.68    0.17    0.02    0.00    0.00      0      0      0       0      53 12.90
 1999 162    88    57   15.0      4   1.17    827   1331      0    666   2159   3327      0    0.0  0.000   1169      0  0.057  0.372  0.000  0.000  0.000  0.000  0.000   2.16   0.00   0.35      0   1169    141.8   1.10   0.00   0.82    2.13    2.54    2.35    1.79    1.11    0.69    0.17    0.02    0.00    0.00      0      0      0       0      56 12.60
 1999 163    89    58   15.0      4   1.17    813   1389      0    668   2202   3444      0    0.0  0.000   1242      0  0.000  0.295  0.000  0.000  0.000  0.000  0.000   2.11   0.00   0.36      0   1242    143.8   1.10   0.00   0.82    2.12    2.54    2.36    1.81    1.12    0.70    0.17    0.02    0.00    0.00      0      0      0       0      56 10.90
 1999 164    90    59   15.0      4   1.16    798   1455      0    670   2253   3548      0    0.0  0.000   1295      0  0.184  0.457  0.000  0.000  0.000  0.000  0.000   2.08   0.00   0.36      0   1295    145.1   1.10   0.00   0.82    2.11    2.54    2.37    1.82    1.13    0.71    0.18    0.02    0.00    0.00      0      0      0       0      60 12.30
 1999 165    91    60   15.0      4   1.16    783   1506      0    671   2288   3638      0    0.0  0.000   1350      0  0.056  0.371  0.000  0.000  0.000  0.000  0.000   2.05   0.00   0.37      0   1350    147.6   1.10   0.00   0.82    2.10    2.54    2.37    1.84    1.14    0.71    0.18    0.03    0.00    0.00      0      0      0       0      60 12.40
 1999 166    92    61   15.0      4   1.13    767   1573      0    672   2339   3716      0    0.0  0.000   1377      0  0.486  0.658  0.000  0.000  0.000  0.000  0.000   2.04   0.00   0.37      0   1377    147.1   1.10   0.00   0.82    2.09    2.53    2.37    1.85    1.15    0.72    0.18    0.03    0.00    0.00      0      0      0       0      63 12.50
 1999 167    93    62   15.0      4   1.09    750   1642      0    672   2392   3787      0    0.0  0.000   1395      0  0.630  0.754  0.000  0.000  0.000  0.000  0.000   2.05   0.00   0.37      0   1395    145.6   1.10   0.00   0.82    2.07    2.53    2.37    1.86    1.16    0.73    0.18    0.03    0.00    0.00      0      0      0       0      66 10.95
 1999 168    94    63   15.0      4   1.06    733   1701      0    672   2434   3848      0    0.0  0.000   1414      0  0.563  0.709  0.000  0.000  0.000  0.000  0.000   2.02   0.00   0.37      0   1414    144.8   1.10   0.00   0.82    2.06    2.52    2.37    1.87    1.17    0.73    0.18    0.03    0.00    0.00      0      0      0       0      66 11.85
 1999 169    95    64   15.0      4   1.03    715   1753      0    672   2468   3902      0    0.0  0.000   1434      0  0.511  0.674  0.000  0.000  0.000  0.000  0.000   1.99   0.00   0.37      0   1434    144.7   1.10   0.00   0.82    2.05    2.50    2.36    1.88    1.18    0.74    0.19    0.03    0.00    0.00      0      0      0       0      66 12.60
 1999 170    96    65   15.0      4   1.00    696   1806      0    672   2502   3951      0    0.0  0.000   1449      0  0.637  0.758  0.000  0.000  0.000  0.000  0.000   1.96   0.00   0.37      0   1449    143.8   1.10   0.00   0.82    2.04    2.49    2.36    1.89    1.18    0.75    0.19    0.03    0.00    0.00      0      0      0       0      66 12.05
 1999 171    97    66   15.0      4   0.97    677   1856      0    671   2533   3994      0    0.0  0.000   1461      0  0.662  0.775  0.000  0.000  0.000  0.000  0.000   1.94   0.00   0.37      0   1461    143.0   1.10   0.00   0.82    2.03    2.48    2.35    1.90    1.19    0.75    0.19    0.03    0.00    0.00      0      0      0       0      66 12.50
 1999 172    98    67   15.0      5   0.95    677   1856     56    669   2533   4050   1135    5.0  0.014   1517      4  0.454  0.636  0.000  0.000  0.000  0.000  0.000   1.90   3.71   0.37      0   1517    139.8   1.10   0.00   0.82    2.02    2.46    2.34    1.90    1.19    0.75    0.19    0.03    0.00    0.00      0      0      0       0      66 11.35
 1999 173    99    68   15.0      5   0.93    677   1856    113    666   2533   4106   1135    9.9  0.027   1574      4  0.444  0.630  0.000  0.000  0.000  0.000  0.000   1.85   7.17   0.38      0   1574    136.7   1.10   0.00   0.82    2.01    2.45    2.33    1.89    1.19    0.75    0.19    0.03    0.00    0.00      0      0      0       0      66 10.60
 1999 174   100    69   15.0      5   0.91    677   1853    173    663   2530   4164   1135   15.3  0.042   1634      4  0.349  0.566  0.000  0.000  0.000  0.000  0.000   1.81  10.61   0.39      0   1634    134.3   1.10   0.00   0.82    2.01    2.45    2.33    1.89    1.19    0.75    0.19    0.03    0.00    0.00      0      0      0       0      66  8.10
 1999 175   101    70   15.0      5   0.90    677   1841    240    659   2518   4218   1135   21.1  0.057   1701      4  0.203  0.469  0.000  0.000  0.000  0.000  0.000   1.77  14.11   0.40      0   1701    133.0   1.10   0.00   0.82    2.01    2.45    2.33    1.89    1.19    0.75    0.19    0.03    0.00    0.00      0      0      0       0      66  8.15
 1999 176   102    71   15.0      5   0.87    677   1842    288    656   2518   4267   1135   25.3  0.067   1748      4  0.660  0.774  0.000  0.000  0.000  0.000  0.000   1.78  16.46   0.41      0   1748    128.6   1.10   0.00   0.82    2.00    2.44    2.31    1.88    1.18    0.74    0.19    0.03    0.00    0.00      0      0      0       0      70 10.00
 1999 177   103    72   15.0      5   0.84    677   1835    336    653   2512   4308   1135   29.6  0.078   1796      4  0.653  0.769  0.000  0.000  0.000  0.000  0.000   1.75  18.69   0.42      0   1796    124.4   1.10   0.00   0.82    2.00    2.44    2.31    1.88    1.18    0.74    0.19    0.03    0.00    0.00      0      0      0       0      70  8.80
 1999 178   104    73   15.0      5   0.82    677   1823    388    650   2499   4348   1135   34.1  0.089   1848      4  0.559  0.706  0.000  0.000  0.000  0.000  0.000   1.72  20.98   0.43      0   1848    120.9   1.10   0.00   0.82    2.00    2.44    2.31    1.88    1.18    0.74    0.19    0.03    0.00    0.00      0      0      0       0      70  8.60
 1999 179   105    74   15.0      5   0.79    677   1814    431    647   2491   4383   1135   38.0  0.098   1892      4  0.756  0.838  0.000  0.000  0.000  0.000  0.000   1.73  22.80   0.43      0   1892    116.3   1.10   0.00   0.82    2.00    2.44    2.31    1.88    1.18    0.74    0.19    0.03    0.00    0.00      0      0      0       0      73 11.25
 1999 180   106    75   15.0      5   0.76    677   1805    475    643   2482   4417   1135   41.8  0.108   1936      4  0.762  0.842  0.000  0.000  0.000  0.000  0.000   1.70  24.54   0.44      0   1936    111.9   1.10   0.00   0.82    2.00    2.44    2.31    1.88    1.18    0.74    0.19    0.03    0.00    0.00      0      0      0       0      76 10.95
 1999 181   107    76   15.0      5   0.73    677   1795    518    640   2472   4451   1135   45.6  0.116   1978      4  0.780  0.854  0.000  0.000  0.000  0.000  0.000   1.68  26.17   0.44      0   1978    107.5   1.10   0.00   0.82    2.00    2.44    2.31    1.88    1.18    0.74    0.19    0.03    0.00    0.00      0      0      0       0      79 10.40
 1999 182   108    77   15.0      5   0.70    677   1782    564    637   2458   4483   1135   49.6  0.126   2024      4  0.706  0.804  0.000  0.000  0.000  0.000  0.000   1.66  27.85   0.45      0   2024    103.7   1.10   0.00   0.82    2.00    2.44    2.31    1.88    1.18    0.74    0.19    0.03    0.00    0.00      0      0      0       0      79 10.15
 1999 183   109    78   15.0      5   0.68    677   1766    609    634   2443   4513   1135   53.6  0.135   2070      4  0.719  0.813  0.000  0.000  0.000  0.000  0.000   1.63  29.43   0.46      0   2070    100.0   1.10   0.00   0.82    2.00    2.44    2.31    1.88    1.18    0.74    0.19    0.03    0.00    0.00      0      0      0       0      79 11.80
 1999 184   110    79   15.0      5   0.65    677   1749    656    631   2425   4542   1135   57.8  0.144   2117      4  0.673  0.783  0.000  0.000  0.000  0.000  0.000   1.61  31.00   0.47      0   2117     96.6   1.10   0.00   0.82    2.00    2.44    2.31    1.88    1.18    0.74    0.19    0.03    0.00    0.00      0      0      0       0      79 10.65
 1999 185   111    80   15.0      5   0.63    677   1732    701    627   2409   4571   1135   61.8  0.153   2162      4  0.719  0.813  0.000  0.000  0.000  0.000  0.000   1.59  32.44   0.47      0   2162     93.2   1.10   0.00   0.82    2.00    2.44    2.31    1.88    1.18    0.74    0.19    0.03    0.00    0.00      0      0      0       0      79  9.95
 1999 186   112    81   15.0      5   0.61    677   1717    744    624   2394   4598   1135   65.5  0.162   2204      4  0.797  0.865  0.000  0.000  0.000  0.000  0.000   1.56  33.73   0.48      0   2204     89.5   1.10   0.00   0.82    2.00    2.44    2.31    1.88    1.18    0.74    0.19    0.03    0.00    0.00      0      0      0       0      79 10.90
 1999 187   113    82   15.0      5   0.58    677   1699    789    621   2376   4625   1135   69.5  0.171   2249      4  0.722  0.815  0.000  0.000  0.000  0.000  0.000   1.54  35.06   0.49      0   2249     86.2   1.10   0.00   0.82    2.00    2.44    2.31    1.88    1.18    0.74    0.19    0.03    0.00    0.00      0      0      0       0      79 10.60
 1999 188   114    83   15.0      5   0.56    677   1680    833    618   2356   4650   1135   73.4  0.179   2294      4  0.741  0.828  0.000  0.000  0.000  0.000  0.000   1.52  36.32   0.49      0   2294     83.0   1.10   0.00   0.82    2.00    2.44    2.31    1.88    1.18    0.74    0.19    0.03    0.00    0.00      0      0      0       0      79 11.75
 1999 189   115    84   15.0      5   0.54    677   1657    880    615   2334   4675   1135   77.5  0.188   2341      4  0.681  0.788  0.000  0.000  0.000  0.000  0.000   1.49  37.60   0.50      0   2341     80.2   1.10   0.00   0.82    2.00    2.44    2.31    1.88    1.18    0.74    0.19    0.03    0.00    0.00      0      0      0       0      79 11.30
 1999 190   116    85   15.0      5   0.53    677   1633    928    612   2310   4699   1135   81.7  0.198   2389      4  0.648  0.766  0.000  0.000  0.000  0.000  0.000   1.47  38.86   0.51      0   2389     77.6   1.10   0.00   0.82    2.00    2.44    2.31    1.88    1.18    0.74    0.19    0.03    0.00    0.00      0      0      0       0      79 10.80
 1999 191   117    86   15.0      5   0.51    677   1613    972    609   2290   4723   1135   85.6  0.206   2432      4  0.763  0.843  0.000  0.000  0.000  0.000  0.000   1.45  39.95   0.52      0   2432     74.6   1.10   0.00   0.82    2.00    2.44    2.31    1.88    1.18    0.74    0.19    0.03    0.00    0.00      0      0      0       0      79  9.65
 1999 192   118    87   15.0      5   0.48    677   1595   1012    606   2272   4745   1135   89.2  0.213   2473      4  0.833  0.889  0.000  0.000  0.000  0.000  0.000   1.45  40.94   0.52      0   2473     71.5   1.10   0.00   0.82    2.00    2.44    2.31    1.88    1.18    0.74    0.19    0.03    0.00    0.00      0      0      0       0      82 11.30
 1999 193   119    88   15.0      5   0.47    677   1574   1055    603   2251   4766   1135   92.9  0.221   2516      4  0.786  0.858  0.000  0.000  0.000  0.000  0.000   1.42  41.93   0.53      0   2516     68.7   1.10   0.00   0.82    2.00    2.44    2.31    1.88    1.18    0.74    0.19    0.03    0.00    0.00      0      0      0       0      82 11.80
 1999 194   120    89   15.0      5   0.45    677   1552   1097    600   2229   4787   1135   96.6  0.229   2558      4  0.791  0.861  0.000  0.000  0.000  0.000  0.000   1.40  42.90   0.53      0   2558     66.0   1.10   0.00   0.82    2.00    2.44    2.31    1.88    1.18    0.74    0.19    0.03    0.00    0.00      0      0      0       0      82 12.50
 1999 195   121    90   15.0      5   0.43    677   1524   1145    597   2201   4807   1135  100.8  0.238   2605      4  0.667  0.778  0.000  0.000  0.000  0.000  0.000   1.38  43.94   0.54      0   2605     63.8   1.10   0.00   0.82    2.00    2.44    2.31    1.88    1.18    0.74    0.19    0.03    0.00    0.00      0      0      0       0      82 12.80
 1999 196   122    91   15.0      5   0.42    677   1500   1188    594   2177   4826   1135  104.7  0.246   2649      4  0.759  0.840  0.000  0.000  0.000  0.000  0.000   1.36  44.86   0.55      0   2649     61.4   1.10   0.00   0.82    2.00    2.44    2.31    1.88    1.18    0.74    0.19    0.03    0.00    0.00      0      0      0       0      82 13.10
 1999 197   123    92   15.0      5   0.40    677   1477   1230    591   2154   4845   1135  108.3  0.254   2691      4  0.801  0.868  0.000  0.000  0.000  0.000  0.000   1.34  45.72   0.56      0   2691     58.9   1.10   0.00   0.82    2.00    2.44    2.31    1.88    1.18    0.74    0.19    0.03    0.00    0.00      0      0      0       0      82 13.10
 1999 198   124    93   15.0      5   0.38    677   1452   1274    588   2129   4863   1135  112.2  0.262   2734      4  0.765  0.844  0.000  0.000  0.000  0.000  0.000   1.31  46.58   0.56      0   2734     56.7   1.10   0.00   0.82    2.00    2.44    2.31    1.88    1.18    0.74    0.19    0.03    0.00    0.00      0      0      0       0      82 13.00
 1999 199   125    94   15.0      5   0.37    677   1427   1317    585   2104   4882   1135  116.0  0.270   2777      4  0.772  0.848  0.000  0.000  0.000  0.000  0.000   1.29  47.41   0.57      0   2777     54.5   1.10   0.00   0.82    2.00    2.44    2.31    1.88    1.18    0.74    0.19    0.03    0.00    0.00      0      0      0       0      82 10.85
 1999 200   126    95   15.0      5   0.36    677   1399   1363    582   2076   4900   1135  120.0  0.278   2824      4  0.694  0.796  0.000  0.000  0.000  0.000  0.000   1.26  48.27   0.58      0   2824     52.6   1.10   0.00   0.82    2.00    2.44    2.31    1.88    1.18    0.74    0.19    0.03    0.00    0.00      0      0      0       0      82 11.15
 1999 201   127    96   15.0      5   0.34    677   1369   1412    579   2046   4918   1135  124.3  0.287   2873      4  0.634  0.756  0.000  0.000  0.000  0.000  0.000   1.24  49.15   0.58      0   2873     50.9   1.10   0.00   0.82    2.00    2.44    2.31    1.88    1.18    0.74    0.19    0.03    0.00    0.00      0      0      0       0      82  9.95
 1999 202   128    97   15.0      5   0.34    677   1334   1466    576   2010   4937   1135  129.1  0.297   2926      4  0.510  0.674  0.000  0.000  0.000  0.000  0.000   1.21  50.09   0.59      0   2926     49.6   1.10   0.00   0.82    2.00    2.44    2.31    1.88    1.18    0.74    0.19    0.03    0.00    0.00      0      0      0       0      82  8.00
 1999 203   129    98   15.0      5   0.33    677   1297   1520    573   1974   4954   1135  133.8  0.307   2980      4  0.516  0.678  0.000  0.000  0.000  0.000  0.000   1.18  50.99   0.60      0   2980     48.3   1.10   0.00   0.82    2.00    2.44    2.31    1.88    1.18    0.74    0.19    0.03    0.00    0.00      0      0      0       0      82 10.00
 1999 204   130    99   15.0      5   0.32    677   1260   1574    570   1937   4972   1135  138.7  0.317   3035      4  0.486  0.658  0.000  0.000  0.000  0.000  0.000   1.17  51.87   0.61      0   3035     47.2   1.10   0.00   0.82    2.00    2.44    2.31    1.88    1.18    0.74    0.19    0.03    0.00    0.00      0      0      0       0      85  9.50
 1999 205   131   100   15.0      5   0.31    677   1225   1626    568   1902   4988   1135  143.2  0.326   3087      4  0.563  0.709  0.000  0.000  0.000  0.000  0.000   1.16  52.68   0.62      0   3087     45.8   1.10   0.00   0.82    2.00    2.44    2.31    1.88    1.18    0.74    0.19    0.03    0.00    0.00      0      0      0       0      88 10.55
 1999 206   132   101   15.0      5   0.30    677   1191   1673    565   1868   5001   1135  147.3  0.335   3134      4  0.679  0.786  0.000  0.000  0.000  0.000  0.000   1.15  53.39   0.63      0   3134     44.3   1.10   0.00   0.82    2.00    2.44    2.31    1.88    1.18    0.74    0.19    0.03    0.00    0.00      0      0      0       0      91  9.95
 1999 207   133   102   15.0      5   0.29    677   1157   1719    562   1834   5014   1135  151.4  0.343   3180      4  0.696  0.798  0.000  0.000  0.000  0.000  0.000   1.13  54.07   0.63      0   3180     42.7   1.10   0.00   0.82    2.00    2.44    2.31    1.88    1.18    0.74    0.19    0.03    0.00    0.00      0      0      0       0      94  9.80
 1999 208   134   103   15.0      5   0.28    677   1119   1771    559   1796   5027   1135  155.9  0.352   3231      4  0.536  0.691  0.000  0.000  0.000  0.000  0.000   1.12  54.80   0.64      0   3231     41.6   1.10   0.00   0.82    2.00    2.44    2.31    1.88    1.18    0.74    0.19    0.03    0.00    0.00      0      0      0       0      96  7.70
 1999 209   135   104   15.0      5   0.27    677   1088   1814    556   1765   5040   1135  159.8  0.360   3275      4  0.759  0.840  0.000  0.000  0.000  0.000  0.000   1.12  55.40   0.65      0   3275     40.0   1.10   0.00   0.82    2.00    2.44    2.31    1.88    1.18    0.74    0.19    0.03    0.00    0.00      0      0      0       0      99  8.85
 1999 210   136   105   15.0      5   0.26    677   1058   1855    554   1735   5051   1135  163.4  0.367   3316      4  0.821  0.881  0.000  0.000  0.000  0.000  0.000   1.11  55.95   0.66      0   3316     38.4   1.10   0.00   0.82    2.00    2.44    2.31    1.88    1.18    0.74    0.19    0.03    0.00    0.00      0      0      0       0     102 11.05
 1999 211   137   106   15.0      5   0.25    677   1026   1900    551   1702   5063   1135  167.3  0.375   3360      4  0.747  0.832  0.000  0.000  0.000  0.000  0.000   1.08  56.53   0.66      0   3360     36.9   1.10   0.00   0.82    2.00    2.44    2.31    1.88    1.18    0.74    0.19    0.03    0.00    0.00      0      0      0       0     105 11.05
 1999 212   138   107   15.0      5   0.24    677    986   1951    548   1663   5074   1135  171.8  0.384   3411      4  0.577  0.718  0.000  0.000  0.000  0.000  0.000   1.06  57.18   0.67      0   3411     35.9   1.10   0.00   0.82    2.00    2.44    2.31    1.88    1.18    0.74    0.19    0.03    0.00    0.00      0      0      0       0     108  9.45
 1999 213   139   108   15.0      5   0.24    677    947   2001    545   1624   5086   1135  176.2  0.393   3462      4  0.599  0.733  0.000  0.000  0.000  0.000  0.000   1.05  57.81   0.68      0   3462     34.8   1.10   0.00   0.82    2.00    2.44    2.31    1.88    1.18    0.74    0.19    0.03    0.00    0.00      0      0      0       0     110  8.95
 1999 214   140   109   15.0      5   0.23    677    916   2043    543   1593   5097   1135  180.0  0.401   3504      4  0.791  0.861  0.000  0.000  0.000  0.000  0.000   1.05  58.31   0.69      0   3504     33.4   1.10   0.00   0.82    2.00    2.44    2.31    1.88    1.18    0.74    0.19    0.03    0.00    0.00      0      0      0       0     113 10.75
 1999 215   141   110   15.0      5   0.22    677    887   2086    540   1564   5111   1135  183.7  0.408   3547      4  0.775  0.850  0.000  0.000  0.000  0.000  0.000   1.03  58.82   0.69      0   3547     32.1   1.10   0.00   0.82    2.00    2.44    2.31    1.88    1.18    0.74    0.19    0.03    0.00    0.00      0      0      0       0     116 12.00
 1999 216   142   111   15.0      5   0.21    677    857   2130    537   1534   5124   1135  187.6  0.416   3591      4  0.760  0.840  0.000  0.000  0.000  0.000  0.000   1.01  59.32   0.70      0   3591     30.9   1.10   0.00   0.82    2.00    2.44    2.31    1.88    1.18    0.74    0.19    0.03    0.00    0.00      0      0      0       0     118 12.20
 1999 217   143   112   15.0      5   0.21    677    857   2130    537   1534   5124   1135  187.6  0.416   3591      4  0.674  0.783  0.000  0.000  0.000  0.000  0.000   1.01  59.32   0.70      0   3591     30.9   1.10   0.00   0.82    2.00    2.44    2.31    1.88    1.18    0.74    0.19    0.03    0.00    0.00      0      0      0       0     118 11.40
 1999 218   144   113   15.0      5   0.21    677    857   2130    537   1534   5124   1135  187.6  0.416   3591      4  0.765  0.844  0.000  0.000  0.000  0.000  0.000   1.01  59.32   0.70      0   3591     30.9   1.10   0.00   0.82    2.00    2.44    2.31    1.88    1.18    0.74    0.19    0.03    0.00    0.00      0      0      0       0     118 11.85
 1999 219   145   114   15.0      5   0.21    677    857   2130    537   1534   5124   1135  187.6  0.416   3591      4  0.700  0.800  0.000  0.000  0.000  0.000  0.000   1.01  59.32   0.70      0   3591     30.9   1.10   0.00   0.82    2.00    2.44    2.31    1.88    1.18    0.74    0.19    0.03    0.00    0.00      0      0      0       0     118 10.95
 1999 220   146   115   15.0      5   0.21    677    857   2130    537   1534   5124   1135  187.6  0.416   3591      4  0.000  0.800  0.000  0.000  0.000  0.000  0.000   1.01  59.32   0.70      0   3591     30.9   1.10   0.00   0.82    2.00    2.44    2.31    1.88    1.18    0.74    0.19    0.03    0.00    0.00      0      0      0       0     118  0.00

*DSSAT Cropping System Model Ver. 4.5.1.023 -Stub         AUG 13, 2014; 14:03:00
                                                                                
*RUN   2        : MACH0002_1                MZCER045 MACH0002    1              
 MODEL          : MZCER045 - Maize                                              
 EXPERIMENT     : MACH0002 MZ                                                   
 DATA PATH      :                                                               
 TREATMENT  1   : MACH0002_1                MZCER045                            
  
!                                                                                                                                                                                                                                      Root Dens. (cm/cm3) by soil depth (cm):
!                                                                                                                                                                                                                                      0-5    5-15   15-30   30-40   40-50   50-61   61-71   71-82  82-111 111-140
@YEAR DOY   DAS   DAP   L#SD   GSTD   LAID   LWAD   SWAD   GWAD   RWAD   VWAD   CWAD   G#AD   GWGD   HIAD   PWAD   P#AD   WSPD   WSGD   NSTD   EWSD  PST1A  PST2A   KSTD   LN%D   SH%D   HIPD   PWDD   PWTD     SLAD   CHTD   CWID   RDPD    RL1D    RL2D    RL3D    RL4D    RL5D    RL6D    RL7D    RL8D    RL9D   RL10D   CDAD   LDAD   SDAD   SNW0C   SNW1C  DTTD
 1999 285    31     0    0.0      0   0.00      0      0      0      0      0      0      0    0.0  0.000      0      0  0.000  0.000  0.000  0.000  0.000  0.000  0.000   0.00   0.00   0.00      0      0      0.0   0.00   0.00   0.05    0.00    0.00    0.00    0.00    0.00    0.00    0.00    0.00    0.00    0.00      0      0      0       0       0 14.46
 1999 286    32     1    0.0      0   0.00      0      0      0      0      0      0      0    0.0  0.000      0      0  0.000  0.000  0.000  0.000  0.000  0.000  0.000   0.00   0.00   0.00      0      0      0.0   0.00   0.00   0.05    0.00    0.00    0.00    0.00    0.00    0.00    0.00    0.00    0.00    0.00      0      0      0       0       0 15.21
 1999 287    33     2    0.0      0   0.00      0      0      0      0      0      0      0    0.0  0.000      0      0  0.000  0.000  0.000  0.000  0.000  0.000  0.000   0.00   0.00   0.00      0      0      0.0   0.00   0.00   0.05    0.00    0.00    0.00    0.00    0.00    0.00    0.00    0.00    0.00    0.00      0      0      0       0       0 13.67
 1999 288    34     3    0.0      0   0.00      0      0      0      0      0      0      0    0.0  0.000      0      0  0.000  0.000  0.000  0.000  0.000  0.000  0.000   0.00   0.00   0.00      0      0      0.0   0.00   0.00   0.05    0.00    0.00    0.00    0.00    0.00    0.00    0.00    0.00    0.00    0.00      0      0      0       0       0 12.30
 1999 289    35     4    0.0      0   0.00      0      0      0      0      0      0      0    0.0  0.000      0      0  0.000  0.000  0.000  0.000  0.000  0.000  0.000   0.00   0.00   0.00      0      0      0.0   0.00   0.00   0.05    0.00    0.00    0.00    0.00    0.00    0.00    0.00    0.00    0.00    0.00      0      0      0       0       0 13.71
 1999 290    36     5    0.0      0   0.00      0      0      0      0      0      0      0    0.0  0.000      0      0  0.000  0.000  0.000  0.000  0.000  0.000  0.000   0.00   0.00   0.00      0      0      0.0   0.00   0.00   0.05    0.00    0.00    0.00    0.00    0.00    0.00    0.00    0.00    0.00    0.00      0      0      0       0       0 14.95
 1999 291    37     6    0.0      0   0.00      0      0      0      0      0      0      0    0.0  0.000      0      0  0.000  0.000  0.000  0.000  0.000  0.000  0.000   0.00   0.00   0.00      0      0      0.0   0.00   0.00   0.05    0.00    0.00    0.00    0.00    0.00    0.00    0.00    0.00    0.00    0.00      0      0      0       0       0 13.83
 1999 292    38     7    0.0      0   0.00      0      0      0      0      0      0      0    0.0  0.000      0      0  0.000  0.000  0.000  0.000  0.000  0.000  0.000   0.00   0.00   0.00      0      0      0.0   0.00   0.00   0.05    0.00    0.00    0.00    0.00    0.00    0.00    0.00    0.00    0.00    0.00      0      0      0       0       0 13.15
 1999 293    39     8    0.0      0   0.00      0      0      0      0      0      0      0    0.0  0.000      0      0  0.000  0.000  0.000  0.000  0.000  0.000  0.000   0.00   0.00   0.00      0      0      0.0   0.00   0.00   0.05    0.00    0.00    0.00    0.00    0.00    0.00    0.00    0.00    0.00    0.00      0      0      0       0       0 16.06
 1999 294    40     9    0.0      0   0.00      0      0      0      0      0      0      0    0.0  0.000      0      0  0.000  0.000  0.000  0.000  0.000  0.000  0.000   0.00   0.00   0.00      0      0      0.0   0.00   0.00   0.05    0.00    0.00    0.00    0.00    0.00    0.00    0.00    0.00    0.00    0.00      0      0      0       0       0 14.89
 1999 295    41    10    0.0      0   0.00      0      0      0      0      0      0      0    0.0  0.000      0      0  0.000  0.000  0.000  0.000  0.000  0.000  0.000   0.00   0.00   0.00      0      0      0.0   0.00   0.00   0.05    0.00    0.00    0.00    0.00    0.00    0.00    0.00    0.00    0.00    0.00      0      0      0       0       0 15.61
 1999 296    42    11    0.0      0   0.00      0      0      0      0      0      0      0    0.0  0.000      0      0  0.000  0.000  0.000  0.000  0.000  0.000  0.000   0.00   0.00   0.00      0      0      0.0   0.00   0.00   0.05    0.00    0.00    0.00    0.00    0.00    0.00    0.00    0.00    0.00    0.00      0      0      0       0       0 15.45
 1999 297    43    12    0.0      0   0.00      0      0      0      0      0      0      0    0.0  0.000      0      0  0.000  0.000  0.000  0.000  0.000  0.000  0.000   0.00   0.00   0.00      0      0      0.0   0.00   0.00   0.05    0.00    0.00    0.00    0.00    0.00    0.00    0.00    0.00    0.00    0.00      0      0      0       0       0 15.87
 1999 298    44    13    0.0      0   0.00      0      0      0      0      0      0      0    0.0  0.000      0      0  0.000  0.000  0.000  0.000  0.000  0.000  0.000   0.00   0.00   0.00      0      0      0.0   0.00   0.00   0.05    0.00    0.00    0.00    0.00    0.00    0.00    0.00    0.00    0.00    0.00      0      0      0       0       0 16.10
 1999 299    45    14    0.0      0   0.00      0      0      0      0      0      0      0    0.0  0.000      0      0  0.000  0.000  0.000  0.000  0.000  0.000  0.000   0.00   0.00   0.00      0      0      0.0   0.00   0.00   0.07    0.00    0.00    0.00    0.00    0.00    0.00    0.00    0.00    0.00    0.00      0      0      0       0       0 16.24
 1999 300    46    15    0.0      0   0.00      0      0      0      0      0      0      0    0.0  0.000      0      0  0.000  0.000  0.000  0.000  0.000  0.000  0.000   0.00   0.00   0.00      0      0      0.0   0.00   0.00   0.10    0.00    0.00    0.00    0.00    0.00    0.00    0.00    0.00    0.00    0.00      0      0      0       0       0 14.95
 1999 301    47    16    0.0      0   0.00      0      0      0      0      0      0      0    0.0  0.000      0      0  0.000  0.000  0.000  0.000  0.000  0.000  0.000   0.00   0.00   0.00      0      0      0.0   0.00   0.00   0.12    0.00    0.00    0.00    0.00    0.00    0.00    0.00    0.00    0.00    0.00      0      0      0       0       0 16.45
 1999 302    48    17    0.0      0   0.00      0      0      0      0      0      0      0    0.0  0.000      0      0  0.000  0.000  0.000  0.000  0.000  0.000  0.000   0.00   0.00   0.00      0      0      0.0   0.00   0.00   0.15    0.00    0.00    0.00    0.00    0.00    0.00    0.00    0.00    0.00    0.00      0      0      0       0       0 16.11
 1999 303    49    18    0.0      0   0.00      0      0      0      0      0      0      0    0.0  0.000      0      0  0.000  0.000  0.000  0.000  0.000  0.000  0.000   0.00   0.00   0.00      0      0      0.0   0.00   0.00   0.17    0.00    0.00    0.00    0.00    0.00    0.00    0.00    0.00    0.00    0.00      0      0      0       0       0 15.77
 1999 304    50    19    2.0      1   0.00      7      7      0      7     14     14      0    0.0  0.000      0      0  0.000  0.000  0.012  0.000  0.000  0.000  0.000   4.40   0.00   0.00      0      0     29.4   0.00   0.00   0.18    0.14    0.07    0.00    0.00    0.00    0.00    0.00    0.00    0.00    0.00      0      0      0       0       0 15.73
 1999 305    51    20    2.0      1   0.00      7      7      0      7     14     14      0    0.0  0.000      0      0  0.000  0.271  0.006  0.000  0.000  0.000  0.000   4.40   0.00   0.00      0      0     49.0   0.00   0.00   0.20    0.14    0.07    0.00    0.00    0.00    0.00    0.00    0.00    0.00    0.00      0      0      0       0       0 14.76
 1999 306    52    21    3.0      1   0.00      7      7      0      8     14     14      0    0.0  0.000      0      0  0.561  0.708  0.000  0.000  0.000  0.000  0.000   4.40   0.00   0.00      0      0     56.5   0.00   0.00   0.21    0.14    0.07    0.00    0.00    0.00    0.00    0.00    0.00    0.00    0.00      0      0      0       0       0 14.99
 1999 307    53    22    3.0      1   0.00      7      7      0      8     14     14      0    0.0  0.000      0      0  0.734  0.823  0.000  0.000  0.000  0.000  0.000   4.40   0.00   0.00      0      0     61.0   0.00   0.00   0.22    0.14    0.07    0.00    0.00    0.00    0.00    0.00    0.00    0.00    0.00      0      0      0       0       0 16.57
 1999 308    54    23    4.0      1   0.01      7      7      0      8     14     14      0    0.0  0.000      0      0  0.826  0.885  0.000  0.000  0.000  0.000  0.000   4.40   0.00   0.00      0      0     72.9   0.00   0.00   0.23    0.14    0.07    0.00    0.00    0.00    0.00    0.00    0.00    0.00    0.00      0      0      0       0       0 16.56
 1999 309    55    24    4.0      1   0.02      7      7      0      8     14     14      0    0.0  0.000      0      0  0.000  0.000  0.000  0.000  0.000  0.000  0.000   4.40   0.00   0.00      0      0    223.6   0.01   0.00   0.25    0.15    0.08    0.01    0.00    0.00    0.00    0.00    0.00    0.00    0.00      0      0      0       0       0 16.00
 1999 310    56    25    5.0      1   0.03      9      7      0      9     16     16      0    0.0  0.000      0      0  0.000  0.000  0.000  0.000  0.000  0.000  0.000   3.90   0.00   0.00      0      0    325.2   0.03   0.00   0.27    0.15    0.09    0.01    0.00    0.00    0.00    0.00    0.00    0.00    0.00      0      0      0       0       0 16.80
 1999 311    57    26    5.0      2   0.04     13      7      0     10     20     20      0    0.0  0.000      0      0  0.000  0.000  0.000  0.000  0.000  0.000  0.000   3.05   0.00   0.00      0      0    322.4   0.04   0.00   0.28    0.16    0.09    0.02    0.00    0.00    0.00    0.00    0.00    0.00    0.00      0      0      0       0       0 13.74
 1999 312    58    27    5.0      2   0.06     20      7      0     12     27     27      0    0.0  0.000      0      0  0.000  0.000  0.000  0.000  0.000  0.000  0.000   2.89   0.00   0.00      0      0    295.8   0.05   0.00   0.29    0.17    0.10    0.03    0.00    0.00    0.00    0.00    0.00    0.00    0.00      0      0      0       0       0 15.42
 1999 313    59    28    6.0      2   0.08     28      7      0     15     35     35      0    0.0  0.000      0      0  0.000  0.000  0.000  0.000  0.000  0.000  0.000   2.93   0.00   0.00      0      0    275.9   0.07   0.00   0.31    0.19    0.12    0.04    0.00    0.00    0.00    0.00    0.00    0.00    0.00      0      0      0       0       0 15.18
 1999 314    60    29    6.0      2   0.10     37      7      0     18     44     44      0    0.0  0.000      0      0  0.000  0.000  0.000  0.000  0.000  0.000  0.000   3.84   0.00   0.00      0      0    260.8   0.09   0.00   0.32    0.20    0.13    0.05    0.00    0.00    0.00    0.00    0.00    0.00    0.00      0      0      0       0       0 14.13
 1999 315    61    30    6.0      2   0.12     47      7      0     20     54     54      0    0.0  0.000      0      0  0.000  0.000  0.000  0.006  0.000  0.000  0.000   3.76   0.00   0.00      0      0    248.5   0.10   0.00   0.33    0.20    0.13    0.06    0.00    0.00    0.00    0.00    0.00    0.00    0.00      0      0      0       0       0 13.43
 1999 316    62    31    7.0      3   0.14     59      7      0     27     66     66      0    0.0  0.000      0      0  0.000  0.000  0.000  0.010  0.000  0.000  0.000   3.66   0.00   0.00      0      0    237.2   0.12   0.00   0.34    0.24    0.16    0.08    0.02    0.00    0.00    0.00    0.00    0.00    0.00      0      0      0       0       0 13.87
 1999 317    63    32    7.0      3   0.16     72      7      0     35     79     79      0    0.0  0.000      0      0  0.000  0.000  0.000  0.026  0.000  0.000  0.000   3.59   0.00   0.00      0      0    228.4   0.14   0.00   0.36    0.28    0.20    0.11    0.03    0.00    0.00    0.00    0.00    0.00    0.00      0      0      0       0       1 13.80
 1999 318    64    33    8.0      3   0.19     86      7      0     46     94     94      0    0.0  0.000      0      0  0.000  0.000  0.000  0.051  0.000  0.000  0.000   3.53   0.00   0.00      0      0    220.7   0.17   0.00   0.38    0.30    0.24    0.16    0.06    0.00    0.00    0.00    0.00    0.00    0.00      0      0      0       0       1 13.62
 1999 319    65    34    8.0      3   0.21    100      8      0     56    108    108      0    0.0  0.000      0      0  0.000  0.000  0.000  0.083  0.000  0.000  0.000   3.47   0.00   0.00      0      0    214.4   0.19   0.00   0.40    0.31    0.26    0.19    0.10    0.00    0.00    0.00    0.00    0.00    0.00      0      0      0       0       1 12.36
 1999 320    66    35    8.0      3   0.24    116      9      0     68    124    124      0    0.0  0.000      0      0  0.000  0.000  0.000  0.110  0.000  0.000  0.000   3.41   0.00   0.00      0      0    208.5   0.21   0.00   0.42    0.33    0.29    0.23    0.15    0.00    0.00    0.00    0.00    0.00    0.00      0      0      0       0       1 12.63
 1999 321    67    36    9.0      3   0.27    134     10      0     88    144    144      0    0.0  0.000      0      0  0.000  0.000  0.000  0.141  0.000  0.000  0.000   3.36   0.00   0.00      0      0    202.6   0.24   0.00   0.44    0.36    0.35    0.30    0.22    0.02    0.00    0.00    0.00    0.00    0.00      0      0      0       0       2 14.03
 1999 322    68    37    9.0      3   0.30    150     12      0    102    162    162      0    0.0  0.000      0      0  0.000  0.000  0.000  0.177  0.000  0.000  0.000   3.30   0.00   0.00      0      0    198.3   0.26   0.00   0.46    0.38    0.38    0.34    0.27    0.05    0.00    0.00    0.00    0.00    0.00      0      0      0       0       2 11.41
 1999 323    69    38    9.0      3   0.33    170     14      0    128    184    184      0    0.0  0.000      0      0  0.000  0.000  0.000  0.192  0.000  0.000  0.000   3.26   0.00   0.00      0      0    193.6   0.29   0.00   0.48    0.42    0.45    0.43    0.36    0.11    0.00    0.00    0.00    0.00    0.00      0      0      0       0       2 13.25
 1999 324    70    39    9.0      3   0.36    188     17      0    146    205    205      0    0.0  0.000      0      0  0.000  0.000  0.000  0.228  0.000  0.000  0.000   3.21   0.00   0.00      0      0    189.7   0.31   0.00   0.49    0.44    0.48    0.46    0.40    0.16    0.00    0.00    0.00    0.00    0.00      0      0      0       0       3 11.85
 1999 325    71    40   10.0      3   0.39    209     22      0    167    231    231      0    0.0  0.000      0      0  0.000  0.000  0.000  0.245  0.000  0.000  0.000   3.16   0.00   0.00      0      0    185.8   0.34   0.00   0.51    0.48    0.51    0.50    0.45    0.23    0.00    0.00    0.00    0.00    0.00      0      0      0       0       4 12.63
 1999 326    72    41   10.0      3   0.42    230     27      0    194    256    256      0    0.0  0.000      0      0  0.000  0.000  0.000  0.262  0.000  0.000  0.000   3.11   0.00   0.00      0      0    182.4   0.37   0.00   0.53    0.56    0.56    0.55    0.52    0.30    0.02    0.00    0.00    0.00    0.00      0      0      0       0       5 11.79
 1999 327    73    42   10.0      3   0.45    252     33      0    218    285    285      0    0.0  0.000      0      0  0.000  0.000  0.000  0.283  0.000  0.000  0.000   3.07   0.00   0.00      0      0    179.2   0.40   0.00   0.55    0.59    0.61    0.58    0.57    0.37    0.05    0.00    0.00    0.00    0.00      0      0      0       0       6 12.07
 1999 328    74    43   11.0      3   0.48    275     40      0    237    315    315      0    0.0  0.000      1      0  0.000  0.000  0.000  0.303  0.000  0.000  0.000   3.03   0.00   0.00      0      1    176.1   0.42   0.00   0.56    0.62    0.63    0.58    0.60    0.40    0.09    0.00    0.00    0.00    0.00      0      0      0       0       7 12.03
 1999 329    75    44   11.0      3   0.52    299     48      0    264    347    349      0    0.0  0.000      2      0  0.000  0.000  0.000  0.314  0.000  0.000  0.000   2.99   0.00   0.01      0      2    173.2   0.45   0.00   0.58    0.64    0.67    0.60    0.64    0.46    0.15    0.00    0.00    0.00    0.00      0      0      0       0       8 12.10
 1999 330    76    45   11.0      3   0.55    326     57      0    292    383    387      0    0.0  0.000      4      0  0.000  0.000  0.000  0.331  0.000  0.000  0.000   2.95   0.00   0.01      0      4    170.3   0.49   0.00   0.60    0.67    0.70    0.63    0.69    0.52    0.23    0.00    0.00    0.00    0.00      0      0      0       0       9 12.30
 1999 331    77    46   12.0      3   0.59    353    103      0    295    456    461      0    0.0  0.000      6      0  0.000  0.000  0.000  0.353  0.000  0.000  0.000   2.92   0.00   0.01      0      6    167.6   0.52   0.00   0.62    0.63    0.66    0.58    0.64    0.49    0.23    0.00    0.00    0.00    0.00      0      0      0       0      11 12.55
 1999 332    78    47   12.0      3   0.63    381    159      0    298    540    548      0    0.0  0.000      9      0  0.000  0.000  0.000  0.354  0.000  0.000  0.000   2.88   0.00   0.02      0      9    165.1   0.55   0.00   0.63    0.59    0.62    0.54    0.60    0.47    0.23    0.00    0.00    0.00    0.00      0      0      0       0      12 12.20
 1999 333    79    48   12.0      3   0.67    408    218      0    302    627    639      0    0.0  0.000     13      0  0.000  0.000  0.000  0.359  0.000  0.000  0.000   2.83   0.00   0.02      0     13    162.9   0.58   0.00   0.64    0.55    0.57    0.50    0.57    0.45    0.24    0.01    0.00    0.00    0.00      0      0      0       0      14 12.05
 1999 334    80    49   13.0      3   0.70    436    282      0    319    717    737      0    0.0  0.000     20      0  0.000  0.000  0.000  0.305  0.000  0.000  0.000   2.72   0.00   0.03      0     20    160.8   0.61   0.00   0.66    0.56    0.55    0.48    0.57    0.50    0.34    0.05    0.00    0.00    0.00      0      0      0       0      15 12.10
 1999 335    81    50   13.0      3   0.73    459    338      0    345    797    826      0    0.0  0.000     29      0  0.000  0.000  0.000  0.387  0.000  0.000  0.000   2.60   0.00   0.04      0     29    159.1   0.64   0.00   0.67    0.58    0.52    0.46    0.56    0.55    0.47    0.16    0.00    0.00    0.00      0      0      0       0      17 12.80
 1999 336    82    51   13.0      3   0.75    478    383      0    364    861    899      0    0.0  0.000     38      0  0.000  0.000  0.000  0.434  0.000  0.000  0.000   2.55   0.00   0.04      0     38    157.9   0.66   0.00   0.69    0.57    0.50    0.44    0.53    0.56    0.55    0.25    0.00    0.00    0.00      0      0      0       0      19 11.55
 1999 337    83    52   14.0      3   0.78    499    434      0    399    932    987      0    0.0  0.000     54      0  0.000  0.000  0.000  0.361  0.000  0.000  0.000   2.49   0.00   0.05      0     54    156.6   0.68   0.00   0.70    0.59    0.51    0.46    0.52    0.59    0.69    0.47    0.00    0.00    0.00      0      0      0       0      20 12.45
 1999 338    84    53   14.0      3   0.81    521    484      0    447   1006   1085      0    0.0  0.000     79      0  0.000  0.000  0.000  0.289  0.000  0.000  0.000   2.44   0.00   0.07      0     79    155.2   0.71   0.00   0.71    0.75    0.57    0.51    0.56    0.61    0.82    0.82    0.00    0.00    0.00      0      0      0       0      22 12.65
 1999 339    85    54   14.0      3   0.84    543    542      0    458   1085   1184      0    0.0  0.000     98      0  0.000  0.000  0.000  0.249  0.000  0.000  0.000   2.39   0.00   0.08      0     98    153.9   0.73   0.00   0.73    0.80    0.57    0.51    0.55    0.59    0.79    0.86    0.03    0.00    0.00      0      0      0       0      25 12.25
 1999 340    86    55   15.0      3   0.86    566    594      0    488   1161   1291      0    0.0  0.000    131      0  0.000  0.000  0.000  0.232  0.000  0.000  0.000   2.35   0.00   0.10      0    131    152.7   0.76   0.00   0.74    0.93    0.61    0.55    0.57    0.60    0.79    0.94    0.16    0.00    0.00      0      0      0       0      27 13.10
 1999 341    87    56   15.0      3   0.89    587    638      0    510   1226   1390      0    0.0  0.000    164      0  0.000  0.000  0.000  0.247  0.000  0.000  0.000   2.34   0.00   0.12      0    164    151.6   0.78   0.00   0.76    0.95    0.63    0.58    0.59    0.60    0.79    0.97    0.30    0.00    0.00      0      0      0       0      29 12.35
 1999 342    88    57   15.0      3   0.91    605    673      0    527   1278   1475      0    0.0  0.000    197      0  0.000  0.000  0.000  0.301  0.000  0.000  0.000   2.34   0.00   0.13      0    197    150.7   0.80   0.00   0.77    0.96    0.65    0.60    0.60    0.60    0.78    0.95    0.42    0.00    0.00      0      0      0       0      32 11.50
 1999 343    89    58   15.0      3   0.93    623    691      0    560   1315   1561      0    0.0  0.000    246      0  0.000  0.000  0.000  0.361  0.000  0.000  0.000   2.35   0.00   0.16      0    246    149.8   0.82   0.00   0.79    1.01    0.72    0.66    0.64    0.63    0.80    0.94    0.65    0.00    0.00      0      0      0       0      34 12.65
 1999 344    90    59   15.0      3   0.96    645    701      0    602   1346   1662      0    0.0  0.000    316      0  0.000  0.000  0.000  0.287  0.000  0.000  0.000   2.35   0.00   0.19      0    316    148.8   0.84   0.00   0.80    1.11    0.81    0.75    0.70    0.67    0.84    0.96    0.86    0.00    0.00      0      0      0       0      37 13.35
 1999 345    91    60   15.0      3   0.98    666    708      0    635   1373   1760      0    0.0  0.000    386      0  0.000  0.000  0.000  0.289  0.000  0.000  0.000   2.35   0.00   0.22      0    386    147.9   0.86   0.00   0.82    1.23    0.90    0.83    0.76    0.71    0.87    0.97    0.98    0.00    0.00      0      0      0       0      40 12.90
 1999 346    92    61   15.0      3   1.01    688    747      0    683   1435   1861      0    0.0  0.000    426      0  0.000  0.000  0.000  0.278  0.000  0.000  0.000   2.29   0.00   0.23      0    426    146.9   0.89   0.00   0.83    1.39    1.07    0.99    0.88    0.79    0.96    1.02    1.08    0.00    0.00      0      0      0       0      43 13.20
 1999 347    93    62   15.0      3   1.04    709    787      0    758   1496   1961      0    0.0  0.000    465      0  0.000  0.000  0.000  0.240  0.000  0.000  0.000   2.22   0.00   0.24      0    465    146.0   0.91   0.00   0.84    1.63    1.30    1.21    1.05    0.91    1.08    1.09    1.15    0.07    0.00      0      0      0       0      47 12.30
 1999 348    94    63   15.0      4   0.99    701    906      0    764   1606   2185      0    0.0  0.000    578      0  0.000  0.000  0.000  0.202  0.000  0.000  0.000   2.14   0.00   0.26      0    578    140.7   0.91   0.00   0.85    1.66    1.32    1.23    1.07    0.92    1.08    1.09    1.16    0.08    0.00      0      0      0       0      51 12.60
 1999 349    95    64   15.0      4   0.98    691   1005      0    770   1697   2400      0    0.0  0.000    703      0  0.000  0.000  0.000  0.155  0.000  0.000  0.000   2.10   0.00   0.29      0    703    142.1   0.91   0.00   0.86    1.71    1.34    1.25    1.08    0.93    1.09    1.09    1.16    0.09    0.00      0      0      0       0      54 12.75
 1999 350    96    65   15.0      4   0.98    682   1076      0    774   1758   2571      0    0.0  0.000    813      0  0.000  0.000  0.000  0.128  0.000  0.000  0.000   2.10   0.00   0.32      0    813    143.6   0.91   0.00   0.88    1.77    1.35    1.26    1.09    0.93    1.09    1.09    1.16    0.11    0.00      0      0      0       0      58 13.55
 1999 351    97    66   15.0      4   0.98    671   1152      0    780   1823   2783      0    0.0  0.000    960      0  0.000  0.000  0.000  0.098  0.000  0.000  0.000   2.09   0.00   0.34      0    960    145.4   0.91   0.00   0.89    1.84    1.37    1.27    1.10    0.94    1.10    1.10    1.16    0.12    0.00      0      0      0       0      62 12.00
 1999 352    98    67   15.0      4   0.97    660   1200      0    783   1860   2929      0    0.0  0.000   1069      0  0.000  0.000  0.000  0.085  0.000  0.000  0.000   2.10   0.00   0.36      0   1069    147.3   0.91   0.00   0.90    1.89    1.37    1.28    1.10    0.94    1.10    1.09    1.16    0.13    0.00      0      0      0       0      66 12.10
 1999 353    99    68   15.0      4   0.97    649   1236      0    785   1885   3051      0    0.0  0.000   1166      0  0.000  0.000  0.000  0.069  0.000  0.000  0.000   2.14   0.00   0.38      0   1166    149.4   0.91   0.00   0.91    1.92    1.38    1.29    1.10    0.94    1.10    1.09    1.16    0.14    0.00      0      0      0       0      70 12.35
 1999 354   100    69   15.0      4   0.97    637   1272      0    787   1909   3182      0    0.0  0.000   1272      0  0.000  0.000  0.000  0.064  0.000  0.000  0.000   2.15   0.00   0.40      0   1272    151.7   0.91   0.00   0.92    1.93    1.39    1.29    1.11    0.95    1.10    1.09    1.15    0.15    0.00      0      0      0       0      74 11.25
 1999 355   101    70   15.0      4   0.96    625   1307      0    789   1932   3303      0    0.0  0.000   1371      0  0.000  0.000  0.000  0.093  0.000  0.000  0.000   2.12   0.00   0.42      0   1371    154.2   0.91   0.00   0.93    1.93    1.39    1.30    1.11    0.95    1.10    1.09    1.15    0.17    0.00      0      0      0       0      74 11.15
 1999 356   102    71   15.0      4   0.96    612   1347      0    792   1959   3448      0    0.0  0.000   1490      0  0.000  0.000  0.000  0.096  0.000  0.000  0.000   2.09   0.00   0.43      0   1490    157.0   0.91   0.00   0.94    1.94    1.40    1.31    1.12    0.95    1.11    1.09    1.15    0.18    0.00      0      0      0       0      78 11.15
 1999 357   103    72   15.0      4   0.96    598   1381      0    794   1980   3578      0    0.0  0.000   1598      0  0.000  0.000  0.000  0.096  0.000  0.000  0.000   2.07   0.00   0.45      0   1598    160.0   0.91   0.00   0.95    1.97    1.41    1.31    1.12    0.95    1.11    1.09    1.15    0.19    0.00      0      0      0       0      78 11.50
 1999 358   104    73   15.0      4   0.95    585   1428      0    797   2013   3727      0    0.0  0.000   1714      0  0.000  0.000  0.000  0.159  0.000  0.000  0.000   2.03   0.00   0.46      0   1714    163.3   0.91   0.00   0.96    2.03    1.43    1.31    1.12    0.95    1.11    1.08    1.15    0.20    0.00      0      0      0       0      78 11.75
 1999 359   105    74   15.0      4   0.95    570   1467      0    800   2037   3858      0    0.0  0.000   1821      0  0.000  0.000  0.000  0.136  0.000  0.000  0.000   2.01   0.00   0.47      0   1821    166.9   0.91   0.00   0.97    2.09    1.44    1.31    1.12    0.95    1.10    1.08    1.14    0.21    0.00      0      0      0       0      78 11.80
 1999 360   106    75   15.0      4   0.95    555   1517      0    803   2073   4022      0    0.0  0.000   1949      0  0.000  0.000  0.000  0.167  0.000  0.000  0.000   1.98   0.00   0.48      0   1949    170.8   0.91   0.00   0.98    2.18    1.47    1.32    1.12    0.95    1.10    1.08    1.14    0.22    0.00      0      0      0       0      78 12.45
 1999 361   107    76   15.0      4   0.95    540   1566      0    807   2106   4173      0    0.0  0.000   2067      0  0.000  0.000  0.000  0.179  0.000  0.000  0.000   1.95   0.00   0.50      0   2067    175.1   0.91   0.00   0.99    2.26    1.50    1.33    1.12    0.95    1.10    1.07    1.13    0.23    0.00      0      0      0       0      78 12.00
 1999 362   108    77   15.0      4   0.94    524   1610      0    809   2133   4311      0    0.0  0.000   2178      0  0.000  0.000  0.000  0.173  0.000  0.000  0.000   1.92   0.00   0.51      0   2178    179.8   0.91   0.00   1.00    2.31    1.54    1.33    1.11    0.94    1.09    1.07    1.13    0.24    0.00      0      0      0       0      78 13.00
 1999 363   109    78   15.0      5   0.92    524   1610    106    826   2133   4417   1599    6.6  0.024   2283      4  0.000  0.000  0.000  0.168  0.000  0.000  0.000   1.86   4.62   0.52      0   2283    176.0   0.91   0.00   1.01    2.50    1.66    1.38    1.12    0.94    1.09    1.07    1.13    0.25    0.00      0      0      0       0      82 12.30
 1999 364   110    79   15.0      5   0.92    524   1610    211    844   2133   4522   1599   13.2  0.047   2389      4  0.000  0.000  0.000  0.138  0.000  0.000  0.000   1.86   8.83   0.53      0   2389    175.5   0.91   0.00   1.02    2.71    1.78    1.43    1.12    0.95    1.10    1.07    1.13    0.28    0.00      0      0      0       0      86 12.75
 1999 365   111    80   15.0      5   0.92    524   1610    317    869   2133   4628   1599   19.8  0.068   2494      4  0.000  0.000  0.000  0.118  0.000  0.000  0.000   1.84  12.69   0.54      0   2494    174.9   0.91   0.00   1.03    3.01    1.91    1.47    1.13    0.95    1.10    1.07    1.13    0.33    0.00      0      0      0       0      90 12.85
 2000 001   112    81   15.0      5   0.91    524   1610    422    893   2133   4733   1599   26.4  0.089   2600      4  0.000  0.000  0.000  0.128  0.000  0.000  0.000   1.81  16.23   0.55      0   2600    174.2   0.91   0.00   1.04    3.30    1.99    1.49    1.15    0.97    1.11    1.07    1.13    0.39    0.00      0      0      0       0      95 12.90
 2000 002   113    82   15.0      5   0.91    524   1610    528    910   2133   4839   1599   33.0  0.109   2705      4  0.000  0.000  0.000  0.091  0.000  0.000  0.000   1.77  19.50   0.56      0   2705    173.5   0.91   0.00   1.06    3.54    2.03    1.51    1.16    0.97    1.12    1.08    1.14    0.44    0.00      0      0      0       0      99 12.90
 2000 003   114    83   15.0      5   0.90    524   1610    633    930   2133   4944   1599   39.6  0.128   2811      4  0.000  0.000  0.000  0.074  0.000  0.000  0.000   1.74  22.52   0.57      0   2811    172.6   0.91   0.00   1.07    3.84    2.05    1.53    1.18    0.98    1.13    1.08    1.14    0.49    0.00      0      0      0       0     104 12.95
 2000 004   115    84   15.0      5   0.90    524   1610    739    959   2133   5050   1599   46.2  0.146   2916      4  0.000  0.000  0.000  0.059  0.000  0.000  0.000   1.72  25.32   0.58      0   2916    171.7   0.91   0.00   1.08    4.00    2.09    1.57    1.21    1.00    1.15    1.09    1.15    0.57    0.00      0      0      0       0     108 12.25
 2000 005   116    85   15.0      5   0.90    524   1610    844    988   2133   5155   1599   52.8  0.164   3022      4  0.000  0.000  0.000  0.051  0.000  0.000  0.000   1.68  27.93   0.59      0   3022    170.9   0.91   0.00   1.09    4.00    2.13    1.61    1.24    1.02    1.17    1.10    1.16    0.64    0.00      0      0      0       0     113 10.75
 2000 006   117    86   15.0      5   0.89    524   1610    950   1016   2133   5261   1599   59.4  0.180   3127      4  0.000  0.000  0.000  0.046  0.000  0.000  0.000   1.64  30.36   0.59      0   3127    169.9   0.91   0.00   1.10    4.00    2.17    1.65    1.27    1.05    1.19    1.11    1.17    0.71    0.00      0      0      0       0     118 10.85
 2000 007   118    87   15.0      5   0.88    524   1610   1055   1048   2133   5366   1599   66.0  0.197   3233      4  0.000  0.000  0.000  0.040  0.000  0.000  0.000   1.58  32.64   0.60      0   3233    168.8   0.91   0.00   1.11    3.98    2.25    1.72    1.33    1.08    1.23    1.14    1.19    0.80    0.00      0      0      0       0     123 12.50
 2000 008   119    88   15.0      5   0.88    524   1610   1161   1068   2133   5472   1599   72.6  0.212   3338      4  0.000  0.000  0.000  0.034  0.000  0.000  0.000   1.52  34.76   0.61      0   3338    167.5   0.91   0.00   1.12    3.96    2.30    1.78    1.37    1.11    1.26    1.15    1.21    0.86    0.00      0      0      0       0     128 12.55
 2000 009   120    89   15.0      5   0.87    524   1610   1266   1089   2133   5577   1599   79.2  0.227   3444      4  0.000  0.000  0.000  0.026  0.000  0.000  0.000   1.47  36.76   0.62      0   3444    166.2   0.91   0.00   1.13    3.94    2.36    1.84    1.41    1.14    1.29    1.17    1.23    0.90    0.01      0      0      0       0     134 11.65
 2000 010   121    90   15.0      5   0.86    524   1610   1372   1116   2133   5683   1599   85.8  0.241   3549      4  0.000  0.000  0.000  0.017  0.000  0.000  0.000   1.41  38.64   0.62      0   3549    164.8   0.91   0.00   1.13    3.92    2.45    1.91    1.47    1.19    1.33    1.19    1.25    0.94    0.02      0      0      0       0     139 12.10
 2000 011   122    91   15.0      5   0.86    524   1610   1477   1143   2133   5788   1599   92.4  0.255   3655      4  0.000  0.000  0.011  0.007  0.000  0.000  0.000   1.35  40.41   0.63      0   3655    163.3   0.91   0.00   1.14    3.90    2.53    2.00    1.54    1.23    1.37    1.22    1.28    0.96    0.05      0      0      0       0     145 11.40
 2000 012   123    92   15.0      5   0.85    524   1610   1583   1170   2133   5894   1599   99.0  0.269   3760      4  0.000  0.000  0.025  0.000  0.000  0.000  0.000   1.29  42.09   0.64      0   3760    161.5   0.91   0.00   1.15    3.88    2.62    2.08    1.60    1.28    1.42    1.24    1.30    0.98    0.08      0      0      0       0     150 13.50
 2000 013   124    93   15.0      5   0.84    524   1610   1688   1190   2133   5999   1599  105.6  0.281   3866      4  0.000  0.000  0.039  0.000  0.000  0.000  0.000   1.24  43.67   0.64      0   3866    159.5   0.91   0.00   1.16    3.86    2.69    2.15    1.65    1.31    1.45    1.26    1.32    0.99    0.10      0      0      0       0     156 13.50
 2000 014   125    94   15.0      5   0.82    524   1610   1794   1211   2133   6105   1599  112.2  0.294   3971      4  0.000  0.000  0.053  0.000  0.000  0.000  0.000   1.19  45.16   0.65      0   3971    157.4   0.91   0.00   1.17    3.84    2.75    2.21    1.70    1.34    1.48    1.28    1.34    1.00    0.14      0      0      0       0     162 13.00
 2000 015   126    95   15.0      5   0.81    524   1610   1899   1233   2133   6210   1599  118.8  0.306   4077      4  0.000  0.000  0.067  0.000  0.000  0.000  0.000   1.15  46.58   0.66      0   4077    155.5   0.91   0.00   1.17    3.82    2.82    2.28    1.75    1.38    1.52    1.30    1.36    1.01    0.17      0      0      0       0     168 11.65
 2000 016   127    96   15.0      5   0.80    524   1610   2005   1254   2133   6316   1599  125.4  0.317   4182      4  0.000  0.000  0.080  0.000  0.000  0.000  0.000   1.10  47.93   0.66      0   4182    153.4   0.91   0.00   1.18    3.80    2.88    2.34    1.79    1.41    1.55    1.32    1.38    1.02    0.21      0      0      0       0     174 11.75
 2000 017   128    97   15.0      5   0.79    524   1610   2110   1274   2133   6421   1599  132.0  0.329   4288      4  0.000  0.000  0.093  0.000  0.000  0.000  0.000   1.06  49.21   0.67      0   4288    151.1   0.91   0.00   1.19    3.78    2.94    2.40    1.84    1.44    1.58    1.34    1.39    1.02    0.25      0      0      0       0     181 12.00
 2000 018   129    98   15.0      5   0.78    524   1610   2216   1290   2133   6527   1599  138.6  0.339   4393      4  0.000  0.000  0.106  0.000  0.000  0.000  0.000   1.02  50.43   0.67      0   4393    148.5   0.91   0.00   1.20    3.76    2.99    2.44    1.87    1.46    1.60    1.35    1.41    1.03    0.28      0      0      0       0     187 12.60
[...]
 1999 165    91    60   15.0      4   1.15    792   1501      0    697   2293   3599      0    0.0  0.000   1306      0  0.000  0.288  0.043  0.000  0.000  0.000  0.000   1.73   0.00   0.36      0   1306    145.1   1.08   0.00   0.72    3.24    2.55    2.53    2.43    1.01    0.72    0.35    0.00    0.00    0.00      0      0      0       0      82 12.40
 1999 166    92    61   15.0      4   1.12    776   1572      0    698   2348   3686      0    0.0  0.000   1339      0  0.429  0.620  0.045  0.000  0.000  0.000  0.000   1.70   0.00   0.36      0   1339    144.9   1.08   0.00   0.72    3.23    2.56    2.54    2.43    1.02    0.72    0.36    0.00    0.00    0.00      0      0      0       0      85 12.50
 1999 167    93    62   15.0      4   1.09    759   1645      0    698   2404   3764      0    0.0  0.000   1360      0  0.600  0.734  0.042  0.000  0.000  0.000  0.000   1.66   0.00   0.36      0   1360    143.7   1.08   0.00   0.72    3.21    2.56    2.54    2.43    1.02    0.73    0.36    0.00    0.00    0.00      0      0      0       0      89 10.95
 1999 168    94    63   15.0      4   1.06    741   1707      0    699   2448   3830      0    0.0  0.000   1382      0  0.538  0.692  0.045  0.000  0.000  0.000  0.000   1.64   0.00   0.36      0   1382    143.1   1.08   0.00   0.72    3.19    2.56    2.54    2.43    1.02    0.73    0.36    0.00    0.00    0.00      0      0      0       0      92 11.85
 1999 169    95    64   15.0      4   1.03    723   1760      0    698   2483   3887      0    0.0  0.000   1404      0  0.492  0.662  0.047  0.000  0.000  0.000  0.000   1.62   0.00   0.36      0   1404    143.1   1.08   0.00   0.72    3.18    2.56    2.54    2.43    1.03    0.74    0.37    0.00    0.00    0.00      0      0      0       0      95 12.60
 1999 170    96    65   15.0      4   1.00    704   1814      0    698   2518   3936      0    0.0  0.000   1418      0  0.629  0.753  0.047  0.000  0.000  0.000  0.000   1.60   0.00   0.36      0   1418    142.3   1.08   0.00   0.72    3.16    2.56    2.54    2.43    1.03    0.74    0.37    0.00    0.00    0.00      0      0      0       0      99 12.05
 1999 171    97    66   15.0      4   0.97    685   1864      0    697   2549   3979      0    0.0  0.000   1430      0  0.662  0.775  0.045  0.000  0.000  0.000  0.000   1.58   0.00   0.36      0   1430    141.5   1.08   0.00   0.72    3.14    2.56    2.54    2.42    1.03    0.74    0.37    0.00    0.00    0.00      0      0      0       0     102 12.50
 1999 172    98    67   15.0      5   0.95    685   1864     58    695   2549   4037   1141    5.1  0.014   1488      4  0.421  0.615  0.044  0.000  0.000  0.000  0.000   1.54   3.89   0.37      0   1488    138.6   1.08   0.00   0.72    3.13    2.55    2.54    2.42    1.03    0.74    0.37    0.00    0.00    0.00      0      0      0       0     106 11.35
 1999 173    99    68   15.0      5   0.93    685   1864    114    692   2549   4093   1141   10.0  0.028   1545      4  0.460  0.641  0.061  0.000  0.000  0.000  0.000   1.51   7.39   0.38      0   1545    135.4   1.08   0.00   0.72    3.11    2.54    2.52    2.41    1.02    0.74    0.37    0.00    0.00    0.00      0      0      0       0     109 10.60
 1999 174   100    69   15.0      5   0.91    685   1860    174    688   2544   4149   1141   15.3  0.042   1604      4  0.372  0.582  0.067  0.000  0.000  0.000  0.000   1.47  10.85   0.39      0   1604    132.8   1.08   0.00   0.72    3.11    2.54    2.52    2.41    1.02    0.74    0.37    0.00    0.00    0.00      0      0      0       0     113  8.10
 1999 175   101    70   15.0      5   0.90    685   1846    240    685   2531   4201   1141   21.0  0.057   1670      4  0.234  0.490  0.074  0.000  0.000  0.000  0.000   1.44  14.35   0.40      0   1670    131.3   1.08   0.00   0.72    3.11    2.54    2.52    2.41    1.02    0.74    0.37    0.00    0.00    0.00      0      0      0       0     116  8.15
 1999 176   102    71   15.0      5   0.87    685   1846    287    682   2531   4248   1141   25.2  0.068   1717      4  0.674  0.783  0.080  0.000  0.000  0.000  0.000   1.41  16.71   0.40      0   1717    126.9   1.08   0.00   0.72    3.11    2.54    2.52    2.41    1.02    0.74    0.37    0.00    0.00    0.00      0      0      0       0     120 10.00
 1999 177   103    72   15.0      5   0.84    685   1842    337    678   2527   4294   1141   29.5  0.078   1767      4  0.613  0.743  0.082  0.000  0.000  0.000  0.000   1.39  19.06   0.41      0   1767    123.0   1.08   0.00   0.72    3.11    2.54    2.52    2.41    1.02    0.74    0.37    0.00    0.00    0.00      0      0      0       0     123  8.80
 1999 178   104    73   15.0      5   0.82    685   1832    391    675   2517   4338   1141   34.3  0.090   1821      4  0.511  0.675  0.087  0.000  0.000  0.000  0.000   1.36  21.47   0.42      0   1821    119.8   1.08   0.00   0.72    3.11    2.54    2.52    2.41    1.02    0.74    0.37    0.00    0.00    0.00      0      0      0       0     127  8.60
 1999 179   105    74   15.0      5   0.79    685   1821    434    671   2506   4370   1141   38.0  0.099   1864      4  0.779  0.853  0.091  0.000  0.000  0.000  0.000   1.34  23.28   0.43      0   1864    115.2   1.08   0.00   0.72    3.11    2.54    2.52    2.41    1.02    0.74    0.37    0.00    0.00    0.00      0      0      0       0     130 11.25
 1999 180   106    75   15.0      5   0.76    685   1809    477    668   2494   4401   1141   41.8  0.108   1907      4  0.785  0.857  0.092  0.000  0.000  0.000  0.000   1.32  25.00   0.43      0   1907    110.6   1.08   0.00   0.72    3.11    2.54    2.52    2.41    1.02    0.74    0.37    0.00    0.00    0.00      0      0      0       0     133 10.95
 1999 181   107    76   15.0      5   0.73    685   1797    519    665   2482   4431   1141   45.5  0.117   1949      4  0.801  0.868  0.093  0.000  0.000  0.000  0.000   1.30  26.62   0.44      0   1949    106.2   1.08   0.00   0.72    3.11    2.54    2.52    2.41    1.02    0.74    0.37    0.00    0.00    0.00      0      0      0       0     137 10.40
 1999 182   108    77   15.0      5   0.70    685   1781    564    661   2466   4460   1141   49.4  0.126   1994      4  0.735  0.824  0.095  0.000  0.000  0.000  0.000   1.28  28.27   0.45      0   1994    102.3   1.08   0.00   0.72    3.11    2.54    2.52    2.41    1.02    0.74    0.37    0.00    0.00    0.00      0      0      0       0     140 10.15
 1999 183   109    78   15.0      5   0.67    685   1764    608    658   2448   4487   1141   53.3  0.136   2039      4  0.747  0.832  0.096  0.000  0.000  0.000  0.000   1.26  29.83   0.45      0   2039     98.5   1.08   0.00   0.72    3.11    2.54    2.52    2.41    1.02    0.74    0.37    0.00    0.00    0.00      0      0      0       0     143 11.80
 1999 184   110    79   15.0      5   0.65    685   1744    654    655   2429   4513   1141   57.3  0.145   2085      4  0.707  0.805  0.097  0.000  0.000  0.000  0.000   1.24  31.38   0.46      0   2085     95.0   1.08   0.00   0.72    3.11    2.54    2.52    2.41    1.02    0.74    0.37    0.00    0.00    0.00      0      0      0       0     147 10.65
 1999 185   111    80   15.0      5   0.63    685   1725    699    652   2410   4539   1141   61.2  0.154   2129      4  0.748  0.833  0.099  0.000  0.000  0.000  0.000   1.23  32.81   0.47      0   2129     91.5   1.08   0.00   0.72    3.11    2.54    2.52    2.41    1.02    0.74    0.37    0.00    0.00    0.00      0      0      0       0     150  9.95
 1999 186   112    81   15.0      5   0.60    685   1708    740    648   2393   4563   1141   64.9  0.162   2170      4  0.818  0.879  0.100  0.000  0.000  0.000  0.000   1.21  34.09   0.48      0   2170     87.7   1.08   0.00   0.72    3.11    2.54    2.52    2.41    1.02    0.74    0.37    0.00    0.00    0.00      0      0      0       0     153 10.90
 1999 187   113    82   15.0      5   0.58    685   1688    784    645   2373   4587   1141   68.7  0.171   2215      4  0.752  0.835  0.100  0.000  0.000  0.000  0.000   1.19  35.41   0.48      0   2215     84.4   1.08   0.00   0.72    3.11    2.54    2.52    2.41    1.02    0.74    0.37    0.00    0.00    0.00      0      0      0       0     156 10.60
 1999 188   114    83   15.0      5   0.56    685   1667    828    642   2351   4609   1141   72.5  0.180   2258      4  0.769  0.846  0.102  0.000  0.000  0.000  0.000   1.17  36.65   0.49      0   2258     81.2   1.08   0.00   0.72    3.11    2.54    2.52    2.41    1.02    0.74    0.37    0.00    0.00    0.00      0      0      0       0     160 11.75
 1999 189   115    84   15.0      5   0.54    685   1643    873    639   2327   4631   1141   76.5  0.189   2304      4  0.716  0.811  0.102  0.000  0.000  0.000  0.000   1.16  37.91   0.50      0   2304     78.3   1.08   0.00   0.72    3.11    2.54    2.52    2.41    1.02    0.74    0.37    0.00    0.00    0.00      0      0      0       0     163 11.30
 1999 190   116    85   15.0      5   0.52    685   1617    920    635   2302   4652   1141   80.6  0.198   2351      4  0.686  0.791  0.104  0.000  0.000  0.000  0.000   1.14  39.14   0.51      0   2351     75.6   1.08   0.00   0.72    3.11    2.54    2.52    2.41    1.02    0.74    0.37    0.00    0.00    0.00      0      0      0       0     166 10.80
 1999 191   117    86   15.0      5   0.50    685   1595    963    632   2280   4673   1141   84.4  0.206   2393      4  0.789  0.860  0.107  0.000  0.000  0.000  0.000   1.12  40.23   0.51      0   2393     72.6   1.08   0.00   0.72    3.11    2.54    2.52    2.41    1.02    0.74    0.37    0.00    0.00    0.00      0      0      0       0     169  9.65
 1999 192   118    87   15.0      5   0.48    685   1575   1003    629   2259   4693   1141   87.9  0.214   2433      4  0.851  0.901  0.107  0.000  0.000  0.000  0.000   1.10  41.21   0.52      0   2433     69.5   1.08   0.00   0.72    3.11    2.54    2.52    2.41    1.02    0.74    0.37    0.00    0.00    0.00      0      0      0       0     172 11.30
 1999 193   119    88   15.0      5   0.46    685   1552   1045    626   2237   4712   1141   91.5  0.222   2475      4  0.810  0.874  0.107  0.000  0.000  0.000  0.000   1.09  42.20   0.53      0   2475     66.7   1.08   0.00   0.72    3.11    2.54    2.52    2.41    1.02    0.74    0.37    0.00    0.00    0.00      0      0      0       0     175 11.80
 1999 194   120    89   15.0      5   0.44    685   1528   1086    623   2213   4730   1141   95.2  0.230   2517      4  0.814  0.877  0.108  0.000  0.000  0.000  0.000   1.07  43.16   0.53      0   2517     64.0   1.08   0.00   0.72    3.11    2.54    2.52    2.41    1.02    0.74    0.37    0.00    0.00    0.00      0      0      0       0     179 12.50
 1999 195   121    90   15.0      5   0.42    685   1499   1132    620   2184   4747   1141   99.2  0.239   2563      4  0.704  0.803  0.109  0.000  0.000  0.000  0.000   1.05  44.18   0.54      0   2563     61.7   1.08   0.00   0.72    3.11    2.54    2.52    2.41    1.02    0.74    0.37    0.00    0.00    0.00      0      0      0       0     182 12.80
 1999 196   122    91   15.0      5   0.40    685   1471   1173    617   2156   4760   1141  102.8  0.246   2603      4  0.839  0.893  0.111  0.000  0.000  0.000  0.000   1.04  45.05   0.55      0   2603     59.1   1.08   0.00   0.72    3.11    2.54    2.52    2.41    1.02    0.74    0.37    0.00    0.00    0.00      0      0      0       0     185 13.10
 1999 197   123    92   15.0      5   0.39    685   1444   1212    613   2129   4772   1141  106.2  0.254   2643      4  0.867  0.912  0.110  0.000  0.000  0.000  0.000   1.02  45.87   0.55      0   2643     56.6   1.08   0.00   0.72    3.11    2.54    2.52    2.41    1.02    0.74    0.37    0.00    0.00    0.00      0      0      0       0     188 13.10
 1999 198   124    93   15.0      5   0.37    685   1416   1253    610   2101   4784   1141  109.8  0.262   2683      4  0.842  0.895  0.110  0.000  0.000  0.000  0.000   1.01  46.69   0.56      0   2683     54.2   1.08   0.00   0.72    3.11    2.54    2.52    2.41    1.02    0.74    0.37    0.00    0.00    0.00      0      0      0       0     191 13.00
 1999 199   125    94   15.0      5   0.36    685   1388   1293    607   2073   4796   1141  113.3  0.270   2723      4  0.846  0.898  0.112  0.000  0.000  0.000  0.000   0.99  47.48   0.57      0   2723     51.9   1.08   0.00   0.72    3.11    2.54    2.52    2.41    1.02    0.74    0.37    0.00    0.00    0.00      0      0      0       0     194 10.85
 1999 200   126    95   15.0      5   0.34    685   1357   1335    604   2042   4808   1141  117.0  0.278   2766      4  0.793  0.863  0.113  0.000  0.000  0.000  0.000   0.98  48.28   0.58      0   2766     49.8   1.08   0.00   0.72    3.11    2.54    2.52    2.41    1.02    0.74    0.37    0.00    0.00    0.00      0      0      0       0     197 11.15
 1999 201   127    96   15.0      5   0.33    685   1325   1380    601   2010   4820   1141  120.9  0.286   2810      4  0.752  0.835  0.117  0.000  0.000  0.000  0.000   0.96  49.09   0.58      0   2810     48.0   1.08   0.00   0.72    3.11    2.54    2.52    2.41    1.02    0.74    0.37    0.00    0.00    0.00      0      0      0       0     200  9.95
 1999 202   128    97   15.0      5   0.32    685   1290   1427    598   1974   4832   1141  125.1  0.295   2858      4  0.667  0.778  0.122  0.000  0.000  0.000  0.000   0.94  49.94   0.59      0   2858     46.4   1.08   0.00   0.72    3.11    2.54    2.52    2.41    1.02    0.74    0.37    0.00    0.00    0.00      0      0      0       0     203  8.00
 1999 203   129    98   15.0      5   0.31    685   1253   1475    595   1938   4844   1141  129.3  0.305   2905      4  0.668  0.779  0.127  0.000  0.000  0.000  0.000   0.93  50.76   0.60      0   2905     44.8   1.08   0.00   0.72    3.11    2.54    2.52    2.41    1.02    0.74    0.37    0.00    0.00    0.00      0      0      0       0     206 10.00
 1999 204   130    99   15.0      5   0.30    685   1216   1523    592   1901   4855   1141  133.5  0.314   2954      4  0.646  0.764  0.131  0.000  0.000  0.000  0.000   0.91  51.57   0.61      0   2954     43.4   1.08   0.00   0.72    3.11    2.54    2.52    2.41    1.02    0.74    0.37    0.00    0.00    0.00      0      0      0       0     209  9.50
 1999 205   131   100   15.0      5   0.29    685   1181   1570    589   1865   4866   1141  137.6  0.323   3000      4  0.697  0.799  0.136  0.000  0.000  0.000  0.000   0.89  52.32   0.62      0   3000     41.9   1.08   0.00   0.72    3.11    2.54    2.52    2.41    1.02    0.74    0.37    0.00    0.00    0.00      0      0      0       0     212 10.55
 1999 206   132   101   15.0      5   0.28    685   1146   1616    586   1830   4876   1141  141.6  0.331   3046      4  0.716  0.811  0.141  0.000  0.000  0.000  0.000   0.87  53.04   0.62      0   3046     40.4   1.08   0.00   0.72    3.11    2.54    2.52    2.41    1.02    0.74    0.37    0.00    0.00    0.00      0      0      0       0     215  9.95
 1999 207   133   102   15.0      5   0.27    685   1111   1661    583   1796   4887   1141  145.5  0.340   3091      4  0.731  0.821  0.146  0.000  0.000  0.000  0.000   0.86  53.72   0.63      0   3091     38.9   1.08   0.00   0.72    3.11    2.54    2.52    2.41    1.02    0.74    0.37    0.00    0.00    0.00      0      0      0       0     218  9.80
 1999 208   134   103   15.0      5   0.26    685   1072   1710    581   1757   4898   1141  149.9  0.349   3140      4  0.589  0.727  0.153  0.000  0.000  0.000  0.000   0.84  54.45   0.64      0   3140     37.7   1.08   0.00   0.72    3.11    2.54    2.52    2.41    1.02    0.74    0.37    0.00    0.00    0.00      0      0      0       0     221  7.70
 1999 209   135   104   15.0      5   0.25    685   1040   1753    578   1725   4908   1141  153.6  0.357   3183      4  0.786  0.858  0.161  0.000  0.000  0.000  0.000   0.82  55.06   0.65      0   3183     36.3   1.08   0.00   0.72    3.11    2.54    2.52    2.41    1.02    0.74    0.37    0.00    0.00    0.00      0      0      0       0     224  8.85
 1999 210   136   105   15.0      5   0.24    685   1009   1793    575   1694   4917   1141  157.2  0.365   3224      4  0.841  0.894  0.165  0.000  0.000  0.000  0.000   0.80  55.63   0.66      0   3224     34.7   1.08   0.00   0.72    3.11    2.54    2.52    2.41    1.02    0.74    0.37    0.00    0.00    0.00      0      0      0       0     227 11.05
 1999 211   137   106   15.0      5   0.23    685    975   1836    572   1660   4927   1141  160.9  0.373   3267      4  0.775  0.851  0.169  0.000  0.000  0.000  0.000   0.79  56.21   0.66      0   3267     33.4   1.08   0.00   0.72    3.11    2.54    2.52    2.41    1.02    0.74    0.37    0.00    0.00    0.00      0      0      0       0     229 11.05
 1999 212   138   107   15.0      5   0.22    685    935   1886    569   1620   4936   1141  165.3  0.382   3316      4  0.625  0.750  0.177  0.000  0.000  0.000  0.000   0.77  56.87   0.67      0   3316     32.3   1.08   0.00   0.72    3.11    2.54    2.52    2.41    1.02    0.74    0.37    0.00    0.00    0.00      0      0      0       0     232  9.45
 1999 213   139   108   15.0      5   0.21    685    899   1934    566   1584   4949   1141  169.5  0.391   3365      4  0.644  0.763  0.188  0.000  0.000  0.000  0.000   0.75  57.49   0.68      0   3365     31.3   1.08   0.00   0.72    3.11    2.54    2.52    2.41    1.02    0.74    0.37    0.00    0.00    0.00      0      0      0       0     235  8.95
 1999 214   140   109   15.0      5   0.21    685    870   1976    563   1555   4961   1141  173.2  0.398   3406      4  0.814  0.877  0.196  0.000  0.000  0.000  0.000   0.73  58.01   0.69      0   3406     30.0   1.08   0.00   0.72    3.11    2.54    2.52    2.41    1.02    0.74    0.37    0.00    0.00    0.00      0      0      0       0     238 10.75
 1999 215   141   110   15.0      5   0.20    685    857   1985    561   1542   4957   1141  173.9  0.400   3415      4  0.800  0.867  0.204  0.000  0.000  0.000  0.000   0.73  58.11   0.69      0   3415     28.8   1.08   0.00   0.72    3.11    2.54    2.52    2.41    1.02    0.74    0.37    0.00    0.00    0.00      0      0      0       0     241 12.00
 1999 216   142   111   15.0      5   0.19    685    857   1993    558   1542   4965   1141  174.7  0.401   3423      4  0.787  0.858  0.190  0.000  0.000  0.000  0.000   0.72  58.21   0.69      0   3423     27.7   1.08   0.00   0.72    3.11    2.54    2.52    2.41    1.02    0.74    0.37    0.00    0.00    0.00      0      0      0       0     244 12.20
 1999 217   143   112   15.0      5   0.19    685    857   1993    558   1542   4965   1141  174.7  0.401   3423      4  0.710  0.807  0.185  0.000  0.000  0.000  0.000   0.72  58.21   0.69      0   3423     27.7   1.08   0.00   0.72    3.11    2.54    2.52    2.41    1.02    0.74    0.37    0.00    0.00    0.00      0      0      0       0     244 11.40
 1999 218   144   113   15.0      5   0.19    685    857   1993    558   1542   4965   1141  174.7  0.401   3423      4  0.792  0.862  0.185  0.000  0.000  0.000  0.000   0.72  58.21   0.69      0   3423     27.7   1.08   0.00   0.72    3.11    2.54    2.52    2.41    1.02    0.74    0.37    0.00    0.00    0.00      0      0      0       0     244 11.85
 1999 219   145   114   15.0      5   0.19    685    857   1993    558   1542   4965   1141  174.7  0.401   3423      4  0.733  0.823  0.185  0.000  0.000  0.000  0.000   0.72  58.21   0.69      0   3423     27.7   1.08   0.00   0.72    3.11    2.54    2.52    2.41    1.02    0.74    0.37    0.00    0.00    0.00      0      0      0       0     244 10.95
 1999 220   146   115   15.0      5   0.19    685    857   1993    558   1542   4965   1141  174.7  0.401   3423      4  0.000  0.823  0.185  0.000  0.000  0.000  0.000   0.72  58.21   0.69      0   3423     27.7   1.08   0.00   0.72    3.11    2.54    2.52    2.41    1.02    0.74    0.37    0.00    0.00    0.00      0      0      0       0     244  0.00
