*SIMULATION OVERVIEW FILE

*DSSAT Cropping System Model Ver. 4.5.1.023 -Stub         AUG 09, 2014; 00:37:49
                                                                                
*RUN   1        : MACH0001_1                MZCER045 MACH0001    1              
 MODEL          : MZCER045 - Maize                                              
 EXPERIMENT     : MACH0001 MZ                                                   
 DATA PATH      :                                                               
 TREATMENT  1   : MACH0001_1                MZCER045                            
                                                                                
                                                                                
 CROP           : Maize            CULTIVAR : SHORT SEASON     ECOTYPE :IB0001  
 STARTING DATE  : MAR 16 1999                                                   
 PLANTING DATE  : APR 15 1999        PLANTS/m2 :  3.5     ROW SPACING :  75.cm  
 WEATHER        : MK10   1999                                                   
 SOIL           : TOA0235063     TEXTURE : -99   - -99                          
 SOIL INITIAL C : DEPTH:140cm EXTR. H2O:159.8mm  NO3:  9.2kg/ha  NH4:  1.1kg/ha 
 WATER BALANCE  : IRRIGATE ON REPORTED DATE(S)                                  
 IRRIGATION     :       90 mm IN     2 APPLICATIONS                             
 NITROGEN BAL.  : SOIL-N & N-UPTAKE SIMULATION; NO N-FIXATION                   
 N-FERTILIZER   :        3 kg/ha IN     2 APPLICATIONS                          
 RESIDUE/MANURE : INITIAL :   500 kg/ha ;    7141 kg/ha IN     1 APPLICATIONS   
 ENVIRONM. OPT. : DAYL=    0.00  SRAD=    0.00  TMAX=    0.00  TMIN=    0.00    
                  RAIN=    0.00  CO2 =    0.00  DEW =    0.00  WIND=    0.00    
 SIMULATION OPT : WATER   :Y  NITROGEN:Y  N-FIX:N  PHOSPH :N  PESTS  :N         
                  PHOTO   :C  ET      :R  INFIL:S  HYDROL :R  SOM    :P         
                  CO2 368ppm  NSWIT   :1  EVAP :S  SOIL   :2                    
 MANAGEMENT OPT : PLANTING:R  IRRIG   :R  FERT :R  RESIDUE:R  HARVEST:M         
                  WEATHER :M  TILLAGE :Y                                        
                                                                                
*SUMMARY OF SOIL AND GENETIC INPUT PARAMETERS                                   
                                                                                
   SOIL LOWER UPPER   SAT  EXTR  INIT   ROOT   BULK     pH    NO3    NH4    ORG 
  DEPTH LIMIT LIMIT    SW    SW    SW   DIST   DENS                          C  
   cm   cm3/cm3    cm3/cm3    cm3/cm3         g/cm3         ugN/g  ugN/g     %  
------------------------------------------------------------------------------- 
  0-  5 0.120 0.190 0.484 0.070 0.155   1.00   1.30   6.50   0.50   0.06   0.80 
  5- 15 0.120 0.190 0.484 0.070 0.155   1.00   1.30   6.50   0.50   0.06   0.80 
 15- 30 0.120 0.190 0.484 0.070 0.155   0.95   1.30   6.50   0.50   0.06   0.80 
 30- 40 0.310 0.440 0.450 0.130 0.375   0.72   1.40   6.00   0.50   0.06 -99.00 
 40- 50 0.330 0.450 0.484 0.120 0.390   0.51   1.30   6.40   0.50   0.06 -99.00 
 50- 61 0.330 0.450 0.484 0.120 0.390   0.51   1.30   6.40   0.50   0.06 -99.00 
 61- 71 0.330 0.450 0.484 0.120 0.390   0.33   1.30   6.40   0.50   0.06 -99.00 
 71- 82 0.330 0.450 0.484 0.120 0.390   0.33   1.30   6.40   0.50   0.06 -99.00 
 82-111 0.300 0.430 0.484 0.130 0.365   0.19   1.30   6.70   0.50   0.06 -99.00 
111-140 0.300 0.430 0.484 0.130 0.365   0.10   1.30   6.70   0.50   0.06 -99.00 
                                                                                
TOT-140  38.0  53.9  67.4  16.0  45.9  <--cm   -  kg/ha-->    9.2    1.1  31200 
SOIL ALBEDO    : 0.10      EVAPORATION LIMIT :*****         MIN. FACTOR  : 1.00 
RUNOFF CURVE # :60.00      DRAINAGE RATE     : 0.30         FERT. FACTOR : 0.92 
                                                                                
 Maize      CULTIVAR :990003-SHORT SEASON       ECOTYPE :IB0001                 
 P1     : 110.00  P2     : 0.3000  P5     : 680.00                              
 G2     : 820.40  G3     :  6.600  PHINT  : 38.900                              


*SIMULATED CROP AND SOIL STATUS AT MAIN DEVELOPMENT STAGES

 RUN NO.     1     MACH0001_1              

        CROP GROWTH     BIOMASS         LEAF   CROP N     STRESS      STRESS                                           
   DATE  AGE STAGE        kg/ha    LAI   NUM  kg/ha  %   H2O    N    P1    P2   RSTG                                   
 ------  --- ----------   -----  -----  ----  ---  ---  ----  ----  ----  ----  ----                                   
 16 MAR    0 Start Sim        0   0.00   0.0    0  0.0  0.00  0.00  0.00  0.00     7
 15 APR    0 Sowing           0   0.00   0.0    0  0.0  0.00  0.00  0.00  0.00     8
 16 APR    1 Germinate        0   0.00   0.0    0  0.0  0.00  0.00  0.00  0.00     9
 22 APR    7 Emergence       14   0.00   2.0    1  4.4  0.00  0.01  0.00  0.00     1
 30 APR   15 End Juveni      22   0.05   5.4    1  3.2  0.00  0.00  0.00  0.00     2
  5 MAY   20 Floral Ini      62   0.13   7.1    2  3.7  0.00  0.00  0.00  0.00     3
  6 JUN   52 75% Silkin    2615   1.19  15.3   45  1.7  0.00  0.00  0.00  0.00     4
 21 JUN   67 Beg Gr Fil    4050   0.95  15.3   49  1.2  0.45  0.00  0.00  0.00     5
  5 AUG  112 End Gr Fil    5124   0.21  15.3   55  1.1  0.78  0.00  0.00  0.00     6
  8 AUG  115 Maturity      5124   0.21  15.3   55  1.1  0.81  0.00  0.00  0.00    10
  8 AUG  115 Harvest       5124   0.21  15.3   55  1.1  0.00  0.00  0.00  0.00    10


*MAIN GROWTH AND DEVELOPMENT VARIABLES

@     VARIABLE                                         SIMULATED     MEASURED
      --------                                         ---------     --------
      Anthesis day (dap)                                      52          -99
      Physiological maturity day (dap)                       115          -99
      Yield at harvest maturity (kg [dm]/ha)                2130         1601
      Number at maturity (no/m2)                            1135          -99
      Unit wt at maturity (g [dm]/unit)                   0.1876          -99
      Number at maturity (no/unit)                         324.4          -99
      Tops weight at maturity (kg [dm]/ha)                  5124          -99
      By-product produced (stalk) at maturity (kg[dm]/ha    3014          264
      Leaf area index, maximum                              1.25          -99
      Harvest index at maturity                            0.416          -99
      Grain N at maturity (kg/ha)                             40          -99
      Tops N at maturity (kg/ha)                              55          -99
      Stem N at maturity (kg/ha)                              16          -99
      Grain N at maturity (%)                                1.9          -99
      Tops weight at anthesis (kg [dm]/ha)                  2506          -99
      Tops N at anthesis (kg/ha)                              45          -99
      Leaf number per stem at maturity                     15.34          -99
      Emergence day (dap)                                      7          -99


*ENVIRONMENTAL AND STRESS FACTORS

 |-----Development Phase------|-----------------Environment-----------------|----------------Stress-----------------|
                              |-----------Average-----------|---Cumulative--|         (0=Min, 1=Max Stress)         |
                         Time  Temp  Temp Solar Photop                Evapo |----Water---|--Nitrogen--|--Phosphorus-|
                         Span   Max   Min   Rad  [day]    CO2   Rain  Trans  Photo         Photo         Photo
                         days    øC    øC MJ/m2     hr    ppm     mm     mm  synth Growth  synth Growth  synth Growth
---------------------------------------------------------------------------------------------------------------------
 Emergence-End Juvenile     8  26.1  15.5  19.1  11.95  368.1   18.4   29.0  0.000  0.000  0.002  0.004  0.000  0.000
 End Juvenil-Floral Init    5  25.4  16.2  16.5  11.94  368.1   33.9   15.9  0.000  0.000  0.002  0.004  0.000  0.000
 Floral Init-End Lf Grow   32  25.9  14.8  18.1  11.93  368.2    4.7  101.0  0.000  0.000  0.000  0.000  0.000  0.000
 End Lf Grth-Beg Grn Fil   15  25.7  14.1  16.3  11.91  368.2    0.0   26.6  0.252  0.404  0.000  0.000  0.000  0.000
 Grain Filling Phase       45  24.0  13.1  14.3  11.92  368.3    0.0   18.2  0.669  0.780  0.000  0.000  0.000  0.000

 Planting to Harvest      115  25.2  14.2  16.4  11.93  368.2   57.5  203.1  0.313  0.379  0.000  0.000  0.000  0.000
---------------------------------------------------------------------------------------------------------------------

*Resource Productivity
 Growing season length: 115 days 

 Precipitation during growing season        57.5 mm[rain]
   Dry Matter Productivity                  8.91 kg[DM]/m3[rain]          =   89.1 kg[DM]/ha per mm[rain]
   Yield Productivity                       3.70 kg[grain yield]/m3[rain] =   37.0 kg[yield]/ha per mm[rain]

 Evapotranspiration during growing season  203.1 mm[ET]
   Dry Matter Productivity                  2.52 kg[DM]/m3[ET]            =   25.2 kg[DM]/ha per mm[ET]
   Yield Productivity                       1.05 kg[grain yield]/m3[ET]   =   10.5 kg[yield]/ha per mm[ET]

 Transpiration during growing season        79.0 mm[EP]
   Dry Matter Productivity                  6.49 kg[DM]/m3[EP]            =   64.9 kg[DM]/ha per mm[EP]
   Yield Productivity                       2.70 kg[grain yield]/m3[EP]   =   27.0 kg[yield]/ha per mm[EP]

 Irrigation during growing season           90.0 mm[irrig]
   Dry Matter Productivity                  5.69 kg[DM]/m3[irrig]         =   56.9 kg[DM]/ha per mm[irrig]
   Yield Productivity                       2.37 kg[grain yield]/m3[irrig]=   23.7 kg[yield]/ha per mm[irrig]

 N applied during growing season              3. kg[N applied]/ha
   Dry Matter Productivity                1708.1 kg[DM]/kg[N applied]
   Yield Productivity                      710.0 kg[yield]/kg[N applied]

 N uptake during growing season               61 kg[N uptake]/ha
   Dry Matter Productivity                  84.0 kg[DM]/kg[N uptake]
   Yield Productivity                       34.9 kg[yield]/kg[N uptake]

--------------------------------------------------------------------------------------------------------------

                     Maize YIELD :     2130 kg/ha    [Dry weight] 

**************************************************************************************************************

*DSSAT Cropping System Model Ver. 4.5.1.023 -Stub         AUG 09, 2014; 00:37:49
                                                                                
*RUN   2        : MACH0002_1                MZCER045 MACH0002    1              
 MODEL          : MZCER045 - Maize                                              
 EXPERIMENT     : MACH0002 MZ                                                   
 DATA PATH      :                                                               
 TREATMENT  1   : MACH0002_1                MZCER045                            
                                                                                
                                                                                
 CROP           : Maize            CULTIVAR : SHORT SEASON     ECOTYPE :IB0001  
 STARTING DATE  : SEP 12 1999                                                   
 PLANTING DATE  : OCT 12 1999        PLANTS/m2 :  3.5     ROW SPACING :  75.cm  
 WEATHER        : MK10   1999                                                   
 SOIL           : TOA0235063     TEXTURE : -99   - -99                          
 SOIL INITIAL C : DEPTH:140cm EXTR. H2O:159.8mm  NO3:  9.2kg/ha  NH4:  1.1kg/ha 
 WATER BALANCE  : IRRIGATE ON REPORTED DATE(S)                                  
 IRRIGATION     :       90 mm IN     2 APPLICATIONS                             
 NITROGEN BAL.  : SOIL-N & N-UPTAKE SIMULATION; NO N-FIXATION                   
 N-FERTILIZER   :        1 kg/ha IN     2 APPLICATIONS                          
 RESIDUE/MANURE : INITIAL :   500 kg/ha ;     751 kg/ha IN     1 APPLICATIONS   
 ENVIRONM. OPT. : DAYL=    0.00  SRAD=    0.00  TMAX=    0.00  TMIN=    0.00    
                  RAIN=    0.00  CO2 =    0.00  DEW =    0.00  WIND=    0.00    
 SIMULATION OPT : WATER   :Y  NITROGEN:Y  N-FIX:N  PHOSPH :N  PESTS  :N         
                  PHOTO   :C  ET      :R  INFIL:S  HYDROL :R  SOM    :P         
                  CO2 368ppm  NSWIT   :1  EVAP :S  SOIL   :2                    
 MANAGEMENT OPT : PLANTING:R  IRRIG   :R  FERT :R  RESIDUE:R  HARVEST:M         
                  WEATHER :M  TILLAGE :Y                                        
                                                                                
*SUMMARY OF SOIL AND GENETIC INPUT PARAMETERS                                   
                                                                                
   SOIL LOWER UPPER   SAT  EXTR  INIT   ROOT   BULK     pH    NO3    NH4    ORG 
  DEPTH LIMIT LIMIT    SW    SW    SW   DIST   DENS                          C  
   cm   cm3/cm3    cm3/cm3    cm3/cm3         g/cm3         ugN/g  ugN/g     %  
------------------------------------------------------------------------------- 
  0-  5 0.120 0.190 0.484 0.070 0.155   1.00   1.30   6.50   0.50   0.06   0.80 
  5- 15 0.120 0.190 0.484 0.070 0.155   1.00   1.30   6.50   0.50   0.06   0.80 
 15- 30 0.120 0.190 0.484 0.070 0.155   0.95   1.30   6.50   0.50   0.06   0.80 
 30- 40 0.310 0.440 0.450 0.130 0.375   0.72   1.40   6.00   0.50   0.06 -99.00 
 40- 50 0.330 0.450 0.484 0.120 0.390   0.51   1.30   6.40   0.50   0.06 -99.00 
 50- 61 0.330 0.450 0.484 0.120 0.390   0.51   1.30   6.40   0.50   0.06 -99.00 
 61- 71 0.330 0.450 0.484 0.120 0.390   0.33   1.30   6.40   0.50   0.06 -99.00 
 71- 82 0.330 0.450 0.484 0.120 0.390   0.33   1.30   6.40   0.50   0.06 -99.00 
 82-111 0.300 0.430 0.484 0.130 0.365   0.19   1.30   6.70   0.50   0.06 -99.00 
111-140 0.300 0.430 0.484 0.130 0.365   0.10   1.30   6.70   0.50   0.06 -99.00 
                                                                                
TOT-140  38.0  53.9  67.4  16.0  45.9  <--cm   -  kg/ha-->    9.2    1.1  31200 
SOIL ALBEDO    : 0.10      EVAPORATION LIMIT :*****         MIN. FACTOR  : 1.00 
RUNOFF CURVE # :60.00      DRAINAGE RATE     : 0.30         FERT. FACTOR : 0.92 
                                                                                
 Maize      CULTIVAR :990003-SHORT SEASON       ECOTYPE :IB0001                 
 P1     : 110.00  P2     : 0.3000  P5     : 680.00                              
 G2     : 820.40  G3     :  6.600  PHINT  : 38.900                              


*SIMULATED CROP AND SOIL STATUS AT MAIN DEVELOPMENT STAGES

 RUN NO.     2     MACH0002_1              

        CROP GROWTH     BIOMASS         LEAF   CROP N     STRESS      STRESS                                           
   DATE  AGE STAGE        kg/ha    LAI   NUM  kg/ha  %   H2O    N    P1    P2   RSTG                                   
 ------  --- ----------   -----  -----  ----  ---  ---  ----  ----  ----  ----  ----                                   
 12 SEP    0 Start Sim        0   0.00   0.0    0  0.0  0.00  0.00  0.00  0.00     7
 12 OCT    0 Sowing           0   0.00   0.0    0  0.0  0.00  0.00  0.00  0.00     8
 26 OCT   14 Germinate        0   0.00   0.0    0  0.0  0.00  0.00  0.00  0.00     9
 31 OCT   19 Emergence       14   0.00   2.1    1  4.4  0.00  0.01  0.00  0.00     1
  7 NOV   26 End Juveni      20   0.04   5.5    1  3.1  0.38  0.00  0.00  0.00     2
 12 NOV   31 Floral Ini      66   0.14   7.3    2  3.7  0.00  0.00  0.00  0.00     3
 14 DEC   63 75% Silkin    2185   0.99  15.4   34  1.6  0.00  0.00  0.00  0.00     4
 29 DEC   78 Beg Gr Fil    4417   0.92  15.4   42  0.9  0.00  0.00  0.00  0.00     5
  5 FEB  116 End Gr Fil    8182   0.40  15.4   66  0.8  0.02  0.30  0.00  0.00     6
  7 FEB  118 Maturity      8182   0.40  15.4   66  0.8  0.24  0.77  0.00  0.00    10
  7 FEB  118 Harvest       8182   0.40  15.4   66  0.8  0.00  0.00  0.00  0.00    10


*MAIN GROWTH AND DEVELOPMENT VARIABLES

@     VARIABLE                                         SIMULATED     MEASURED
      --------                                         ---------     --------
      Anthesis day (dap)                                      63          -99
      Physiological maturity day (dap)                       118          -99
      Yield at harvest maturity (kg [dm]/ha)                4009          148
      Number at maturity (no/m2)                            1599          -99
      Unit wt at maturity (g [dm]/unit)                   0.2508          -99
      Number at maturity (no/unit)                         456.7          -99
      Tops weight at maturity (kg [dm]/ha)                  8182          -99
      By-product produced (stalk) at maturity (kg[dm]/ha    4190         1647
      Leaf area index, maximum                              1.04          -99
      Harvest index at maturity                            0.490          -99
      Grain N at maturity (kg/ha)                             54          -99
      Tops N at maturity (kg/ha)                              66          -99
      Stem N at maturity (kg/ha)                              12          -99
      Grain N at maturity (%)                                1.3          -99
      Tops weight at anthesis (kg [dm]/ha)                  1961          -99
      Tops N at anthesis (kg/ha)                              33          -99
      Leaf number per stem at maturity                     15.36          -99
      Emergence day (dap)                                     19          -99


*ENVIRONMENTAL AND STRESS FACTORS

 |-----Development Phase------|-----------------Environment-----------------|----------------Stress-----------------|
                              |-----------Average-----------|---Cumulative--|         (0=Min, 1=Max Stress)         |
                         Time  Temp  Temp Solar Photop                Evapo |----Water---|--Nitrogen--|--Phosphorus-|
                         Span   Max   Min   Rad  [day]    CO2   Rain  Trans  Photo         Photo         Photo
                         days    øC    øC MJ/m2     hr    ppm     mm     mm  synth Growth  synth Growth  synth Growth
---------------------------------------------------------------------------------------------------------------------
 Emergence-End Juvenile     7  29.2  15.7  22.7  12.06  368.6    0.0   16.4  0.303  0.384  0.003  0.007  0.000  0.000
 End Juvenil-Floral Init    5  27.7  16.9  17.6  12.07  368.5   36.8   19.5  0.000  0.000  0.000  0.000  0.000  0.000
 Floral Init-End Lf Grow   32  24.6  16.1  17.2  12.08  368.6  285.2  129.5  0.000  0.000  0.000  0.000  0.000  0.000
 End Lf Grth-Beg Grn Fil   15  24.5  15.6  20.0  12.09  368.7   48.9   60.6  0.000  0.000  0.000  0.000  0.000  0.000
 Grain Filling Phase       38  27.0  13.9  25.6  12.08  368.8   18.9  119.3  0.000  0.010  0.143  0.275  0.000  0.000

 Planting to Harvest      118  26.5  15.1  21.5  12.07  368.7  400.1  362.1  0.018  0.030  0.055  0.102  0.000  0.000
---------------------------------------------------------------------------------------------------------------------

*Resource Productivity
 Growing season length: 118 days 

 Precipitation during growing season       400.1 mm[rain]
   Dry Matter Productivity                  2.05 kg[DM]/m3[rain]          =   20.5 kg[DM]/ha per mm[rain]
   Yield Productivity                       1.00 kg[grain yield]/m3[rain] =   10.0 kg[yield]/ha per mm[rain]

 Evapotranspiration during growing season  362.1 mm[ET]
   Dry Matter Productivity                  2.26 kg[DM]/m3[ET]            =   22.6 kg[DM]/ha per mm[ET]
   Yield Productivity                       1.11 kg[grain yield]/m3[ET]   =   11.1 kg[yield]/ha per mm[ET]

 Transpiration during growing season       172.3 mm[EP]
   Dry Matter Productivity                  4.75 kg[DM]/m3[EP]            =   47.5 kg[DM]/ha per mm[EP]
   Yield Productivity                       2.33 kg[grain yield]/m3[EP]   =   23.3 kg[yield]/ha per mm[EP]

 Irrigation during growing season           90.0 mm[irrig]
   Dry Matter Productivity                  9.09 kg[DM]/m3[irrig]         =   90.9 kg[DM]/ha per mm[irrig]
   Yield Productivity                       4.45 kg[grain yield]/m3[irrig]=   44.5 kg[yield]/ha per mm[irrig]

 N applied during growing season              1. kg[N applied]/ha
   Dry Matter Productivity                8182.5 kg[DM]/kg[N applied]
   Yield Productivity                     4009.0 kg[yield]/kg[N applied]

 N uptake during growing season               81 kg[N uptake]/ha
   Dry Matter Productivity                 101.0 kg[DM]/kg[N uptake]
   Yield Productivity                       49.5 kg[yield]/kg[N uptake]

--------------------------------------------------------------------------------------------------------------

                     Maize YIELD :     4009 kg/ha    [Dry weight] 

**************************************************************************************************************

*DSSAT Cropping System Model Ver. 4.5.1.023 -Stub         AUG 09, 2014; 00:37:49
                                                                                
*RUN   3        : MACH0003_1                MZCER045 MACH0003    1              
 MODEL          : MZCER045 - Maize                                              
 EXPERIMENT     : MACH0003 MZ                                                   
 DATA PATH      :                                                               
 TREATMENT  1   : MACH0003_1                MZCER045                            
                                                                                
                                                                                
 CROP           : Maize            CULTIVAR : SHORT SEASON     ECOTYPE :IB0001  
 STARTING DATE  : JAN 15 1999                                                   
 PLANTING DATE  : FEB 14 1999        PLANTS/m2 :  3.5     ROW SPACING :  75.cm  
 WEATHER        : MK10   1999                                                   
 SOIL           : TOA0235024     TEXTURE : -99   - -99                          
 SOIL INITIAL C : DEPTH:140cm EXTR. H2O:162.8mm  NO3:  9.2kg/ha  NH4:  1.1kg/ha 
 WATER BALANCE  : IRRIGATE ON REPORTED DATE(S)                                  
 IRRIGATION     :       90 mm IN     2 APPLICATIONS                             
 NITROGEN BAL.  : SOIL-N & N-UPTAKE SIMULATION; NO N-FIXATION                   
 N-FERTILIZER   :        0 kg/ha IN     0 APPLICATIONS                          
 RESIDUE/MANURE : INITIAL :   500 kg/ha ;       0 kg/ha IN     1 APPLICATIONS   
 ENVIRONM. OPT. : DAYL=    0.00  SRAD=    0.00  TMAX=    0.00  TMIN=    0.00    
                  RAIN=    0.00  CO2 =    0.00  DEW =    0.00  WIND=    0.00    
 SIMULATION OPT : WATER   :Y  NITROGEN:Y  N-FIX:N  PHOSPH :N  PESTS  :N         
                  PHOTO   :C  ET      :R  INFIL:S  HYDROL :R  SOM    :P         
                  CO2 368ppm  NSWIT   :1  EVAP :S  SOIL   :2                    
 MANAGEMENT OPT : PLANTING:R  IRRIG   :R  FERT :R  RESIDUE:R  HARVEST:M         
                  WEATHER :M  TILLAGE :Y                                        
                                                                                
*SUMMARY OF SOIL AND GENETIC INPUT PARAMETERS                                   
                                                                                
   SOIL LOWER UPPER   SAT  EXTR  INIT   ROOT   BULK     pH    NO3    NH4    ORG 
  DEPTH LIMIT LIMIT    SW    SW    SW   DIST   DENS                          C  
   cm   cm3/cm3    cm3/cm3    cm3/cm3         g/cm3         ugN/g  ugN/g     %  
------------------------------------------------------------------------------- 
  0-  5 0.140 0.220 0.484 0.080 0.180   1.00   1.30   6.50   0.50   0.06   0.50 
  5- 15 0.140 0.220 0.484 0.080 0.180   1.00   1.30   6.50   0.50   0.06   0.50 
 15- 30 0.140 0.220 0.484 0.080 0.180   0.95   1.30   6.50   0.50   0.06   0.50 
 30- 40 0.310 0.440 0.450 0.130 0.375   0.72   1.40   6.00   0.50   0.06 -99.00 
 40- 50 0.330 0.450 0.484 0.120 0.390   0.51   1.30   6.40   0.50   0.06 -99.00 
 50- 61 0.330 0.450 0.484 0.120 0.390   0.51   1.30   6.40   0.50   0.06 -99.00 
 61- 71 0.330 0.450 0.484 0.120 0.390   0.33   1.30   6.40   0.50   0.06 -99.00 
 71- 82 0.330 0.450 0.484 0.120 0.390   0.33   1.30   6.40   0.50   0.06 -99.00 
 82-111 0.300 0.430 0.484 0.130 0.365   0.19   1.30   6.70   0.50   0.06 -99.00 
111-140 0.300 0.430 0.484 0.130 0.365   0.10   1.30   6.70   0.50   0.06 -99.00 
                                                                                
TOT-140  38.6  54.8  67.4  16.3  46.7  <--cm   -  kg/ha-->    9.2    1.1  19500 
SOIL ALBEDO    : 0.10      EVAPORATION LIMIT :*****         MIN. FACTOR  : 1.00 
RUNOFF CURVE # :60.00      DRAINAGE RATE     : 0.30         FERT. FACTOR : 0.92 
                                                                                
 Maize      CULTIVAR :990003-SHORT SEASON       ECOTYPE :IB0001                 
 P1     : 110.00  P2     : 0.3000  P5     : 680.00                              
 G2     : 820.40  G3     :  6.600  PHINT  : 38.900                              


*SIMULATED CROP AND SOIL STATUS AT MAIN DEVELOPMENT STAGES

 RUN NO.     3     MACH0003_1              

        CROP GROWTH     BIOMASS         LEAF   CROP N     STRESS      STRESS                                           
   DATE  AGE STAGE        kg/ha    LAI   NUM  kg/ha  %   H2O    N    P1    P2   RSTG                                   
 ------  --- ----------   -----  -----  ----  ---  ---  ----  ----  ----  ----  ----                                   
 15 JAN    0 Start Sim        0   0.00   0.0    0  0.0  0.00  0.00  0.00  0.00     7
 14 FEB    0 Sowing           0   0.00   0.0    0  0.0  0.00  0.00  0.00  0.00     8
 15 FEB    1 Germinate        0   0.00   0.0    0  0.0  0.00  0.00  0.00  0.00     9
 20 FEB    6 Emergence       14   0.00   2.1    1  4.4  0.00  0.01  0.00  0.00     1
 27 FEB   13 End Juveni       9   0.01   5.8    1  6.0  0.82  0.00  0.00  0.00     2
  4 MAR   18 Floral Ini      13   0.02   8.1    1  4.4  0.85  0.00  0.00  0.00     3
  2 APR   47 75% Silkin    1511   0.56  16.9   20  1.3  0.30  0.10  0.00  0.00     4
 15 APR   60 Beg Gr Fil    2747   0.51  16.9   28  1.0  0.00  0.14  0.00  0.00     5
 22 MAY   97 End Gr Fil    5078   0.28  16.9   43  0.8  0.00  0.32  0.00  0.00     6
 25 MAY  100 Maturity      5078   0.28  16.9   43  0.8  0.00  0.69  0.00  0.00    10
 25 MAY  100 Harvest       5078   0.28  16.9   43  0.8  0.00  0.00  0.00  0.00    10


*MAIN GROWTH AND DEVELOPMENT VARIABLES

@     VARIABLE                                         SIMULATED     MEASURED
      --------                                         ---------     --------
      Anthesis day (dap)                                      47          -99
      Physiological maturity day (dap)                       100          -99
      Yield at harvest maturity (kg [dm]/ha)                2604          632
      Number at maturity (no/m2)                            1066          -99
      Unit wt at maturity (g [dm]/unit)                   0.2442          -99
      Number at maturity (no/unit)                         304.7          -99
      Tops weight at maturity (kg [dm]/ha)                  5078          -99
      By-product produced (stalk) at maturity (kg[dm]/ha    2484          213
      Leaf area index, maximum                              0.57          -99
      Harvest index at maturity                            0.513          -99
      Grain N at maturity (kg/ha)                             34          -99
      Tops N at maturity (kg/ha)                              43          -99
      Stem N at maturity (kg/ha)                               9          -99
      Grain N at maturity (%)                                1.3          -99
      Tops weight at anthesis (kg [dm]/ha)                  1405          -99
      Tops N at anthesis (kg/ha)                              20          -99
      Leaf number per stem at maturity                     16.86          -99
      Emergence day (dap)                                      6          -99


*ENVIRONMENTAL AND STRESS FACTORS

 |-----Development Phase------|-----------------Environment-----------------|----------------Stress-----------------|
                              |-----------Average-----------|---Cumulative--|         (0=Min, 1=Max Stress)         |
                         Time  Temp  Temp Solar Photop                Evapo |----Water---|--Nitrogen--|--Phosphorus-|
                         Span   Max   Min   Rad  [day]    CO2   Rain  Trans  Photo         Photo         Photo
                         days    øC    øC MJ/m2     hr    ppm     mm     mm  synth Growth  synth Growth  synth Growth
---------------------------------------------------------------------------------------------------------------------
 Emergence-End Juvenile     7  30.3  15.7  26.0  12.04  368.0    0.0    1.2  0.604  0.689  0.003  0.006  0.000  0.000
 End Juvenil-Floral Init    5  31.3  15.7  26.1  12.03  368.0    0.0    0.8  0.775  0.850  0.000  0.000  0.000  0.000
 Floral Init-End Lf Grow   29  28.4  16.9  21.7  12.01  368.0  110.2  129.6  0.226  0.335  0.035  0.088  0.000  0.000
 End Lf Grth-Beg Grn Fil   13  26.5  16.6  20.5  11.98  368.1   49.6   64.0  0.000  0.000  0.062  0.156  0.000  0.000
 Grain Filling Phase       37  26.1  15.7  18.5  11.94  368.1   54.4  108.3  0.000  0.000  0.141  0.297  0.000  0.000

 Planting to Harvest      100  27.6  16.1  21.0  11.98  368.1  214.2  309.0  0.147  0.188  0.084  0.177  0.000  0.000
---------------------------------------------------------------------------------------------------------------------

*Resource Productivity
 Growing season length: 100 days 

 Precipitation during growing season       214.2 mm[rain]
   Dry Matter Productivity                  2.37 kg[DM]/m3[rain]          =   23.7 kg[DM]/ha per mm[rain]
   Yield Productivity                       1.22 kg[grain yield]/m3[rain] =   12.2 kg[yield]/ha per mm[rain]

 Evapotranspiration during growing season  309.0 mm[ET]
   Dry Matter Productivity                  1.64 kg[DM]/m3[ET]            =   16.4 kg[DM]/ha per mm[ET]
   Yield Productivity                       0.84 kg[grain yield]/m3[ET]   =    8.4 kg[yield]/ha per mm[ET]

 Transpiration during growing season        88.3 mm[EP]
   Dry Matter Productivity                  5.75 kg[DM]/m3[EP]            =   57.5 kg[DM]/ha per mm[EP]
   Yield Productivity                       2.95 kg[grain yield]/m3[EP]   =   29.5 kg[yield]/ha per mm[EP]

 Irrigation during growing season           90.0 mm[irrig]
   Dry Matter Productivity                  5.64 kg[DM]/m3[irrig]         =   56.4 kg[DM]/ha per mm[irrig]
   Yield Productivity                       2.89 kg[grain yield]/m3[irrig]=   28.9 kg[yield]/ha per mm[irrig]

 N uptake during growing season               45 kg[N uptake]/ha
   Dry Matter Productivity                 112.8 kg[DM]/kg[N uptake]
   Yield Productivity                       57.9 kg[yield]/kg[N uptake]

--------------------------------------------------------------------------------------------------------------

                     Maize YIELD :     2604 kg/ha    [Dry weight] 

**************************************************************************************************************

*DSSAT Cropping System Model Ver. 4.5.1.023 -Stub         AUG 09, 2014; 00:37:49
                                                                                
*RUN   4        : MACH0004_1                MZCER045 MACH0004    1              
 MODEL          : MZCER045 - Maize                                              
 EXPERIMENT     : MACH0004 MZ                                                   
 DATA PATH      :                                                               
 TREATMENT  1   : MACH0004_1                MZCER045                            
                                                                                
                                                                                
 CROP           : Maize            CULTIVAR : SHORT SEASON     ECOTYPE :IB0001  
 STARTING DATE  : SEP 12 1999                                                   
 PLANTING DATE  : OCT 12 1999        PLANTS/m2 :  3.5     ROW SPACING :  75.cm  
 WEATHER        : MK10   1999                                                   
 SOIL           : TOA0235024     TEXTURE : -99   - -99                          
 SOIL INITIAL C : DEPTH:140cm EXTR. H2O:162.8mm  NO3:  9.2kg/ha  NH4:  1.1kg/ha 
 WATER BALANCE  : IRRIGATE ON REPORTED DATE(S)                                  
 IRRIGATION     :       90 mm IN     2 APPLICATIONS                             
 NITROGEN BAL.  : SOIL-N & N-UPTAKE SIMULATION; NO N-FIXATION                   
 N-FERTILIZER   :        0 kg/ha IN     0 APPLICATIONS                          
 RESIDUE/MANURE : INITIAL :   500 kg/ha ;     153 kg/ha IN     1 APPLICATIONS   
 ENVIRONM. OPT. : DAYL=    0.00  SRAD=    0.00  TMAX=    0.00  TMIN=    0.00    
                  RAIN=    0.00  CO2 =    0.00  DEW =    0.00  WIND=    0.00    
 SIMULATION OPT : WATER   :Y  NITROGEN:Y  N-FIX:N  PHOSPH :N  PESTS  :N         
                  PHOTO   :C  ET      :R  INFIL:S  HYDROL :R  SOM    :P         
                  CO2 368ppm  NSWIT   :1  EVAP :S  SOIL   :2                    
 MANAGEMENT OPT : PLANTING:R  IRRIG   :R  FERT :R  RESIDUE:R  HARVEST:M         
                  WEATHER :M  TILLAGE :Y                                        
                                                                                
*SUMMARY OF SOIL AND GENETIC INPUT PARAMETERS                                   
                                                                                
   SOIL LOWER UPPER   SAT  EXTR  INIT   ROOT   BULK     pH    NO3    NH4    ORG 
  DEPTH LIMIT LIMIT    SW    SW    SW   DIST   DENS                          C  
   cm   cm3/cm3    cm3/cm3    cm3/cm3         g/cm3         ugN/g  ugN/g     %  
------------------------------------------------------------------------------- 
  0-  5 0.140 0.220 0.484 0.080 0.180   1.00   1.30   6.50   0.50   0.06   0.50 
  5- 15 0.140 0.220 0.484 0.080 0.180   1.00   1.30   6.50   0.50   0.06   0.50 
 15- 30 0.140 0.220 0.484 0.080 0.180   0.95   1.30   6.50   0.50   0.06   0.50 
 30- 40 0.310 0.440 0.450 0.130 0.375   0.72   1.40   6.00   0.50   0.06 -99.00 
 40- 50 0.330 0.450 0.484 0.120 0.390   0.51   1.30   6.40   0.50   0.06 -99.00 
 50- 61 0.330 0.450 0.484 0.120 0.390   0.51   1.30   6.40   0.50   0.06 -99.00 
 61- 71 0.330 0.450 0.484 0.120 0.390   0.33   1.30   6.40   0.50   0.06 -99.00 
 71- 82 0.330 0.450 0.484 0.120 0.390   0.33   1.30   6.40   0.50   0.06 -99.00 
 82-111 0.300 0.430 0.484 0.130 0.365   0.19   1.30   6.70   0.50   0.06 -99.00 
111-140 0.300 0.430 0.484 0.130 0.365   0.10   1.30   6.70   0.50   0.06 -99.00 
                                                                                
TOT-140  38.6  54.8  67.4  16.3  46.7  <--cm   -  kg/ha-->    9.2    1.1  19500 
SOIL ALBEDO    : 0.10      EVAPORATION LIMIT :*****         MIN. FACTOR  : 1.00 
RUNOFF CURVE # :60.00      DRAINAGE RATE     : 0.30         FERT. FACTOR : 0.92 
                                                                                
 Maize      CULTIVAR :990003-SHORT SEASON       ECOTYPE :IB0001                 
 P1     : 110.00  P2     : 0.3000  P5     : 680.00                              
 G2     : 820.40  G3     :  6.600  PHINT  : 38.900                              


*SIMULATED CROP AND SOIL STATUS AT MAIN DEVELOPMENT STAGES

 RUN NO.     4     MACH0004_1              

        CROP GROWTH     BIOMASS         LEAF   CROP N     STRESS      STRESS                                           
   DATE  AGE STAGE        kg/ha    LAI   NUM  kg/ha  %   H2O    N    P1    P2   RSTG                                   
 ------  --- ----------   -----  -----  ----  ---  ---  ----  ----  ----  ----  ----                                   
 12 SEP    0 Start Sim        0   0.00   0.0    0  0.0  0.00  0.00  0.00  0.00     7
 12 OCT    0 Sowing           0   0.00   0.0    0  0.0  0.00  0.00  0.00  0.00     8
 26 OCT   14 Germinate        0   0.00   0.0    0  0.0  0.00  0.00  0.00  0.00     9
 31 OCT   19 Emergence       14   0.00   2.1    1  4.4  0.00  0.01  0.00  0.00     1
  7 NOV   26 End Juveni      20   0.04   5.5    1  3.1  0.42  0.00  0.00  0.00     2
 12 NOV   31 Floral Ini      66   0.14   7.3    2  3.7  0.00  0.00  0.00  0.00     3
 14 DEC   63 75% Silkin    1548   0.59  15.4   15  1.0  0.00  0.25  0.00  0.00     4
 29 DEC   78 Beg Gr Fil    2637   0.43  15.4   24  0.9  0.00  0.40  0.00  0.00     5
  5 FEB  116 End Gr Fil    4710   0.24  15.4   40  0.8  0.00  0.32  0.00  0.00     6
  7 FEB  118 Maturity      4710   0.24  15.4   40  0.8  0.00  0.47  0.00  0.00    10
  7 FEB  118 Harvest       4710   0.24  15.4   40  0.8  0.00  0.00  0.00  0.00    10


*MAIN GROWTH AND DEVELOPMENT VARIABLES

@     VARIABLE                                         SIMULATED     MEASURED
      --------                                         ---------     --------
      Anthesis day (dap)                                      63          -99
      Physiological maturity day (dap)                       118          -99
      Yield at harvest maturity (kg [dm]/ha)                2133         1131
      Number at maturity (no/m2)                             849          -99
      Unit wt at maturity (g [dm]/unit)                   0.2512          -99
      Number at maturity (no/unit)                         242.6          -99
      Tops weight at maturity (kg [dm]/ha)                  4710          -99
      By-product produced (stalk) at maturity (kg[dm]/ha    2590          629
      Leaf area index, maximum                              0.61          -99
      Harvest index at maturity                            0.453          -99
      Grain N at maturity (kg/ha)                             28          -99
      Tops N at maturity (kg/ha)                              40          -99
      Stem N at maturity (kg/ha)                              12          -99
      Grain N at maturity (%)                                1.3          -99
      Tops weight at anthesis (kg [dm]/ha)                  1431          -99
      Tops N at anthesis (kg/ha)                              15          -99
      Leaf number per stem at maturity                     15.36          -99
      Emergence day (dap)                                     19          -99


*ENVIRONMENTAL AND STRESS FACTORS

 |-----Development Phase------|-----------------Environment-----------------|----------------Stress-----------------|
                              |-----------Average-----------|---Cumulative--|         (0=Min, 1=Max Stress)         |
                         Time  Temp  Temp Solar Photop                Evapo |----Water---|--Nitrogen--|--Phosphorus-|
                         Span   Max   Min   Rad  [day]    CO2   Rain  Trans  Photo         Photo         Photo
                         days    øC    øC MJ/m2     hr    ppm     mm     mm  synth Growth  synth Growth  synth Growth
---------------------------------------------------------------------------------------------------------------------
 Emergence-End Juvenile     7  29.2  15.7  22.7  12.06  368.6    0.0   16.9  0.338  0.416  0.003  0.007  0.000  0.000
 End Juvenil-Floral Init    5  27.7  16.9  17.6  12.07  368.5   36.8   19.7  0.000  0.000  0.000  0.000  0.000  0.000
 Floral Init-End Lf Grow   32  24.6  16.1  17.2  12.08  368.6  285.2  131.4  0.000  0.000  0.106  0.231  0.000  0.000
 End Lf Grth-Beg Grn Fil   15  24.5  15.6  20.0  12.09  368.7   48.9   60.0  0.000  0.000  0.165  0.413  0.000  0.000
 Grain Filling Phase       38  27.0  13.9  25.6  12.08  368.8   18.9   85.5  0.000  0.000  0.125  0.313  0.000  0.000

 Planting to Harvest      118  26.5  15.1  21.5  12.07  368.7  400.1  325.6  0.020  0.025  0.093  0.225  0.000  0.000
---------------------------------------------------------------------------------------------------------------------

*Resource Productivity
 Growing season length: 118 days 

 Precipitation during growing season       400.1 mm[rain]
   Dry Matter Productivity                  1.18 kg[DM]/m3[rain]          =   11.8 kg[DM]/ha per mm[rain]
   Yield Productivity                       0.53 kg[grain yield]/m3[rain] =    5.3 kg[yield]/ha per mm[rain]

 Evapotranspiration during growing season  325.6 mm[ET]
   Dry Matter Productivity                  1.45 kg[DM]/m3[ET]            =   14.5 kg[DM]/ha per mm[ET]
   Yield Productivity                       0.66 kg[grain yield]/m3[ET]   =    6.6 kg[yield]/ha per mm[ET]

 Transpiration during growing season       108.9 mm[EP]
   Dry Matter Productivity                  4.32 kg[DM]/m3[EP]            =   43.2 kg[DM]/ha per mm[EP]
   Yield Productivity                       1.96 kg[grain yield]/m3[EP]   =   19.6 kg[yield]/ha per mm[EP]

 Irrigation during growing season           90.0 mm[irrig]
   Dry Matter Productivity                  5.23 kg[DM]/m3[irrig]         =   52.3 kg[DM]/ha per mm[irrig]
   Yield Productivity                       2.37 kg[grain yield]/m3[irrig]=   23.7 kg[yield]/ha per mm[irrig]

 N uptake during growing season               48 kg[N uptake]/ha
   Dry Matter Productivity                  98.1 kg[DM]/kg[N uptake]
   Yield Productivity                       44.4 kg[yield]/kg[N uptake]

--------------------------------------------------------------------------------------------------------------

                     Maize YIELD :     2133 kg/ha    [Dry weight] 

**************************************************************************************************************

*DSSAT Cropping System Model Ver. 4.5.1.023 -Stub         AUG 09, 2014; 00:37:49
                                                                                
*RUN   5        : MACH0006_1                MZCER045 MACH0006    1              
 MODEL          : MZCER045 - Maize                                              
 EXPERIMENT     : MACH0006 MZ                                                   
 DATA PATH      :                                                               
 TREATMENT  1   : MACH0006_1                MZCER045                            
                                                                                
                                                                                
 CROP           : Maize            CULTIVAR : SHORT SEASON     ECOTYPE :IB0001  
 STARTING DATE  : OCT 12 1999                                                   
 PLANTING DATE  : NOV 11 1999        PLANTS/m2 :  3.5     ROW SPACING :  75.cm  
 WEATHER        : MK07   1999                                                   
 SOIL           : TOA0252082     TEXTURE : -99   - -99                          
 SOIL INITIAL C : DEPTH: 53cm EXTR. H2O: 41.0mm  NO3:  9.0kg/ha  NH4:  1.0kg/ha 
 WATER BALANCE  : IRRIGATE ON REPORTED DATE(S)                                  
 IRRIGATION     :       90 mm IN     2 APPLICATIONS                             
 NITROGEN BAL.  : SOIL-N & N-UPTAKE SIMULATION; NO N-FIXATION                   
 N-FERTILIZER   :        0 kg/ha IN     0 APPLICATIONS                          
 RESIDUE/MANURE : INITIAL :   500 kg/ha ;       0 kg/ha IN     1 APPLICATIONS   
 ENVIRONM. OPT. : DAYL=    0.00  SRAD=    0.00  TMAX=    0.00  TMIN=    0.00    
                  RAIN=    0.00  CO2 =    0.00  DEW =    0.00  WIND=    0.00    
 SIMULATION OPT : WATER   :Y  NITROGEN:Y  N-FIX:N  PHOSPH :N  PESTS  :N         
                  PHOTO   :C  ET      :R  INFIL:S  HYDROL :R  SOM    :P         
                  CO2 368ppm  NSWIT   :1  EVAP :S  SOIL   :2                    
 MANAGEMENT OPT : PLANTING:R  IRRIG   :R  FERT :R  RESIDUE:R  HARVEST:M         
                  WEATHER :M  TILLAGE :Y                                        
                                                                                
*SUMMARY OF SOIL AND GENETIC INPUT PARAMETERS                                   
                                                                                
   SOIL LOWER UPPER   SAT  EXTR  INIT   ROOT   BULK     pH    NO3    NH4    ORG 
  DEPTH LIMIT LIMIT    SW    SW    SW   DIST   DENS                          C  
   cm   cm3/cm3    cm3/cm3    cm3/cm3         g/cm3         ugN/g  ugN/g     %  
------------------------------------------------------------------------------- 
  0-  5 0.090 0.150 0.484 0.060 0.120   1.00   1.30   6.50   1.22   0.14   0.90 
  5- 15 0.090 0.150 0.484 0.060 0.120   1.00   1.30   6.50   1.22   0.14   0.90 
 15- 30 0.090 0.150 0.484 0.060 0.120   0.95   1.30   6.50   1.22   0.14   0.90 
 30- 42 0.190 0.290 0.413 0.100 0.240   0.71   1.50   5.60   1.22   0.14   0.20 
 42- 53 0.190 0.290 0.413 0.100 0.240   0.55   1.50   5.60   1.22   0.14   0.20 
                                                                                
TOT- 53   7.1  11.2  24.0   4.1   9.1  <--cm   -  kg/ha-->    9.0    1.0  42000 
SOIL ALBEDO    : 0.10      EVAPORATION LIMIT :*****         MIN. FACTOR  : 1.00 
RUNOFF CURVE # :60.00      DRAINAGE RATE     : 0.30         FERT. FACTOR : 0.92 
                                                                                
 Maize      CULTIVAR :990003-SHORT SEASON       ECOTYPE :IB0001                 
 P1     : 110.00  P2     : 0.3000  P5     : 680.00                              
 G2     : 820.40  G3     :  6.600  PHINT  : 38.900                              


*SIMULATED CROP AND SOIL STATUS AT MAIN DEVELOPMENT STAGES

 RUN NO.     5     MACH0006_1              

        CROP GROWTH     BIOMASS         LEAF   CROP N     STRESS      STRESS                                           
   DATE  AGE STAGE        kg/ha    LAI   NUM  kg/ha  %   H2O    N    P1    P2   RSTG                                   
 ------  --- ----------   -----  -----  ----  ---  ---  ----  ----  ----  ----  ----                                   
 12 OCT    0 Start Sim        0   0.00   0.0    0  0.0  0.00  0.00  0.00  0.00     7
 11 NOV    0 Sowing           0   0.00   0.0    0  0.0  0.00  0.00  0.00  0.00     8
 12 NOV    1 Germinate        0   0.00   0.0    0  0.0  0.00  0.00  0.00  0.00     9
 17 NOV    6 Emergence       14   0.00   2.1    1  4.4  0.00  0.01  0.00  0.00     1
 25 NOV   14 End Juveni      29   0.06   5.7    1  3.1  0.00  0.00  0.00  0.00     2
 30 NOV   19 Floral Ini      87   0.18   7.7    3  3.7  0.00  0.01  0.00  0.00     3
 28 DEC   47 75% Silkin    1960   0.81  16.3   19  1.0  0.00  0.31  0.00  0.00     4
  8 JAN   58 Beg Gr Fil    3103   0.59  16.3   22  0.7  0.00  0.57  0.00  0.00     5
  9 FEB   90 End Gr Fil    3580   0.17  16.3   23  0.6  0.83  0.56  0.00  0.00     6
 11 FEB   92 Maturity      3580   0.17  16.3   23  0.6  1.00  0.46  0.00  0.00    10
 11 FEB   92 Harvest       3580   0.17  16.3   23  0.6  0.00  0.00  0.00  0.00    10


*MAIN GROWTH AND DEVELOPMENT VARIABLES

@     VARIABLE                                         SIMULATED     MEASURED
      --------                                         ---------     --------
      Anthesis day (dap)                                      47          -99
      Physiological maturity day (dap)                        92          -99
      Yield at harvest maturity (kg [dm]/ha)                 687           67
      Number at maturity (no/m2)                             503          -99
      Unit wt at maturity (g [dm]/unit)                   0.1365          -99
      Number at maturity (no/unit)                         143.7          -99
      Tops weight at maturity (kg [dm]/ha)                  3580          -99
      By-product produced (stalk) at maturity (kg[dm]/ha    2911            0
      Leaf area index, maximum                              0.94          -99
      Harvest index at maturity                            0.192          -99
      Grain N at maturity (kg/ha)                              7          -99
      Tops N at maturity (kg/ha)                              23          -99
      Stem N at maturity (kg/ha)                              16          -99
      Grain N at maturity (%)                                1.0          -99
      Tops weight at anthesis (kg [dm]/ha)                  1867          -99
      Tops N at anthesis (kg/ha)                              19          -99
      Leaf number per stem at maturity                     16.28          -99
      Emergence day (dap)                                      6          -99


*ENVIRONMENTAL AND STRESS FACTORS

 |-----Development Phase------|-----------------Environment-----------------|----------------Stress-----------------|
                              |-----------Average-----------|---Cumulative--|         (0=Min, 1=Max Stress)         |
                         Time  Temp  Temp Solar Photop                Evapo |----Water---|--Nitrogen--|--Phosphorus-|
                         Span   Max   Min   Rad  [day]    CO2   Rain  Trans  Photo         Photo         Photo
                         days    øC    øC MJ/m2     hr    ppm     mm     mm  synth Growth  synth Growth  synth Growth
---------------------------------------------------------------------------------------------------------------------
 Emergence-End Juvenile     8  26.5  18.5  17.2  12.08  368.6   79.7   33.8  0.000  0.000  0.002  0.006  0.000  0.000
 End Juvenil-Floral Init    5  26.9  18.6  15.1  12.08  368.6   66.7   19.5  0.000  0.000  0.002  0.005  0.000  0.000
 Floral Init-End Lf Grow   28  27.2  18.3  19.3  12.09  368.7  130.7  132.9  0.000  0.000  0.147  0.291  0.000  0.000
 End Lf Grth-Beg Grn Fil   11  28.1  17.7  23.0  12.09  368.7   19.7   42.9  0.000  0.000  0.274  0.562  0.000  0.000
 Grain Filling Phase       32  30.3  16.1  26.6  12.08  368.8    4.1   23.2  0.723  0.798  0.277  0.563  0.000  0.000

 Planting to Harvest       92  28.5  17.5  21.8  12.08  368.7  336.4  273.6  0.273  0.299  0.178  0.363  0.000  0.000
---------------------------------------------------------------------------------------------------------------------

*Resource Productivity
 Growing season length:  92 days 

 Precipitation during growing season       336.4 mm[rain]
   Dry Matter Productivity                  1.06 kg[DM]/m3[rain]          =   10.6 kg[DM]/ha per mm[rain]
   Yield Productivity                       0.20 kg[grain yield]/m3[rain] =    2.0 kg[yield]/ha per mm[rain]

 Evapotranspiration during growing season  273.6 mm[ET]
   Dry Matter Productivity                  1.31 kg[DM]/m3[ET]            =   13.1 kg[DM]/ha per mm[ET]
   Yield Productivity                       0.25 kg[grain yield]/m3[ET]   =    2.5 kg[yield]/ha per mm[ET]

 Transpiration during growing season        90.1 mm[EP]
   Dry Matter Productivity                  3.97 kg[DM]/m3[EP]            =   39.7 kg[DM]/ha per mm[EP]
   Yield Productivity                       0.76 kg[grain yield]/m3[EP]   =    7.6 kg[yield]/ha per mm[EP]

 Irrigation during growing season           90.0 mm[irrig]
   Dry Matter Productivity                  3.98 kg[DM]/m3[irrig]         =   39.8 kg[DM]/ha per mm[irrig]
   Yield Productivity                       0.76 kg[grain yield]/m3[irrig]=    7.6 kg[yield]/ha per mm[irrig]

 N uptake during growing season               27 kg[N uptake]/ha
   Dry Matter Productivity                 132.6 kg[DM]/kg[N uptake]
   Yield Productivity                       25.4 kg[yield]/kg[N uptake]

--------------------------------------------------------------------------------------------------------------

                     Maize YIELD :      687 kg/ha    [Dry weight] 

**************************************************************************************************************

*DSSAT Cropping System Model Ver. 4.5.1.023 -Stub         AUG 09, 2014; 00:37:50
                                                                                
*RUN   6        : MACH0007_1                MZCER045 MACH0007    1              
 MODEL          : MZCER045 - Maize                                              
 EXPERIMENT     : MACH0007 MZ                                                   
 DATA PATH      :                                                               
 TREATMENT  1   : MACH0007_1                MZCER045                            
                                                                                
                                                                                
 CROP           : Maize            CULTIVAR : SHORT SEASON     ECOTYPE :IB0001  
 STARTING DATE  : MAR 15 2000                                                   
 PLANTING DATE  : APR 14 2000        PLANTS/m2 :  3.5     ROW SPACING :  75.cm  
 WEATHER        : MK10   2000                                                   
 SOIL           : TOA0235054     TEXTURE : -99   - -99                          
 SOIL INITIAL C : DEPTH:140cm EXTR. H2O:165.8mm  NO3:  9.2kg/ha  NH4:  1.1kg/ha 
 WATER BALANCE  : IRRIGATE ON REPORTED DATE(S)                                  
 IRRIGATION     :       90 mm IN     2 APPLICATIONS                             
 NITROGEN BAL.  : SOIL-N & N-UPTAKE SIMULATION; NO N-FIXATION                   
 N-FERTILIZER   :        0 kg/ha IN     0 APPLICATIONS                          
 RESIDUE/MANURE : INITIAL :   500 kg/ha ;       0 kg/ha IN     1 APPLICATIONS   
 ENVIRONM. OPT. : DAYL=    0.00  SRAD=    0.00  TMAX=    0.00  TMIN=    0.00    
                  RAIN=    0.00  CO2 =    0.00  DEW =    0.00  WIND=    0.00    
 SIMULATION OPT : WATER   :Y  NITROGEN:Y  N-FIX:N  PHOSPH :N  PESTS  :N         
                  PHOTO   :C  ET      :R  INFIL:S  HYDROL :R  SOM    :P         
                  CO2 369ppm  NSWIT   :1  EVAP :S  SOIL   :2                    
 MANAGEMENT OPT : PLANTING:R  IRRIG   :R  FERT :R  RESIDUE:R  HARVEST:M         
                  WEATHER :M  TILLAGE :Y                                        
                                                                                
*SUMMARY OF SOIL AND GENETIC INPUT PARAMETERS                                   
                                                                                
   SOIL LOWER UPPER   SAT  EXTR  INIT   ROOT   BULK     pH    NO3    NH4    ORG 
  DEPTH LIMIT LIMIT    SW    SW    SW   DIST   DENS                          C  
   cm   cm3/cm3    cm3/cm3    cm3/cm3         g/cm3         ugN/g  ugN/g     %  
------------------------------------------------------------------------------- 
  0-  5 0.140 0.230 0.484 0.090 0.185   1.00   1.30   6.50   0.50   0.06   0.80 
  5- 15 0.140 0.230 0.484 0.090 0.185   1.00   1.30   6.50   0.50   0.06   0.80 
 15- 30 0.140 0.230 0.484 0.090 0.185   0.95   1.30   6.50   0.50   0.06   0.80 
 30- 40 0.310 0.440 0.450 0.130 0.375   0.72   1.40   6.00   0.50   0.06 -99.00 
 40- 50 0.330 0.450 0.484 0.120 0.390   0.51   1.30   6.40   0.50   0.06 -99.00 
 50- 61 0.330 0.450 0.484 0.120 0.390   0.51   1.30   6.40   0.50   0.06 -99.00 
 61- 71 0.330 0.450 0.484 0.120 0.390   0.33   1.30   6.40   0.50   0.06 -99.00 
 71- 82 0.330 0.450 0.484 0.120 0.390   0.33   1.30   6.40   0.50   0.06 -99.00 
 82-111 0.300 0.430 0.484 0.130 0.365   0.19   1.30   6.70   0.50   0.06 -99.00 
111-140 0.300 0.430 0.484 0.130 0.365   0.10   1.30   6.70   0.50   0.06 -99.00 
                                                                                
TOT-140  38.6  55.1  67.4  16.6  46.8  <--cm   -  kg/ha-->    9.2    1.1  31200 
SOIL ALBEDO    : 0.10      EVAPORATION LIMIT :*****         MIN. FACTOR  : 1.00 
RUNOFF CURVE # :60.00      DRAINAGE RATE     : 0.30         FERT. FACTOR : 0.92 
                                                                                
 Maize      CULTIVAR :990003-SHORT SEASON       ECOTYPE :IB0001                 
 P1     : 110.00  P2     : 0.3000  P5     : 680.00                              
 G2     : 820.40  G3     :  6.600  PHINT  : 38.900                              


*SIMULATED CROP AND SOIL STATUS AT MAIN DEVELOPMENT STAGES

 RUN NO.     6     MACH0007_1              

        CROP GROWTH     BIOMASS         LEAF   CROP N     STRESS      STRESS                                           
   DATE  AGE STAGE        kg/ha    LAI   NUM  kg/ha  %   H2O    N    P1    P2   RSTG                                   
 ------  --- ----------   -----  -----  ----  ---  ---  ----  ----  ----  ----  ----                                   
 15 MAR    0 Start Sim        0   0.00   0.0    0  0.0  0.00  0.00  0.00  0.00     7
 14 APR    0 Sowing           0   0.00   0.0    0  0.0  0.00  0.00  0.00  0.00     8
 15 APR    1 Germinate        0   0.00   0.0    0  0.0  0.00  0.00  0.00  0.00     9
 21 APR    7 Emergence       14   0.00   2.1    1  4.4  0.00  0.01  0.00  0.00     1
 28 APR   14 End Juveni      24   0.05   5.4    1  3.1  0.00  0.00  0.00  0.00     2
  3 MAY   19 Floral Ini      69   0.14   7.2    3  3.7  0.00  0.00  0.00  0.00     3
  5 JUN   52 75% Silkin    2563   1.14  15.5   34  1.3  0.00  0.07  0.00  0.00     4
 19 JUN   66 Beg Gr Fil    3949   0.96  15.5   36  0.9  0.10  0.23  0.00  0.00     5
  3 AUG  111 End Gr Fil    5458   0.24  15.5   38  0.7  0.72  0.50  0.00  0.00     6
  6 AUG  114 Maturity      5458   0.24  15.5   38  0.7  0.84  0.73  0.00  0.00    10
  6 AUG  114 Harvest       5458   0.24  15.5   38  0.7  0.00  0.00  0.00  0.00    10


*MAIN GROWTH AND DEVELOPMENT VARIABLES

@     VARIABLE                                         SIMULATED     MEASURED
      --------                                         ---------     --------
      Anthesis day (dap)                                      52          -99
      Physiological maturity day (dap)                       114          -99
      Yield at harvest maturity (kg [dm]/ha)                2328         1695
      Number at maturity (no/m2)                            1147          -99
      Unit wt at maturity (g [dm]/unit)                   0.2030          -99
      Number at maturity (no/unit)                         327.8          -99
      Tops weight at maturity (kg [dm]/ha)                  5458          -99
      By-product produced (stalk) at maturity (kg[dm]/ha    3149         5022
      Leaf area index, maximum                              1.15          -99
      Harvest index at maturity                            0.427          -99
      Grain N at maturity (kg/ha)                             27          -99
      Tops N at maturity (kg/ha)                              38          -99
      Stem N at maturity (kg/ha)                              10          -99
      Grain N at maturity (%)                                1.2          -99
      Tops weight at anthesis (kg [dm]/ha)                  2468          -99
      Tops N at anthesis (kg/ha)                              34          -99
      Leaf number per stem at maturity                     15.55          -99
      Emergence day (dap)                                      7          -99


*ENVIRONMENTAL AND STRESS FACTORS

 |-----Development Phase------|-----------------Environment-----------------|----------------Stress-----------------|
                              |-----------Average-----------|---Cumulative--|         (0=Min, 1=Max Stress)         |
                         Time  Temp  Temp Solar Photop                Evapo |----Water---|--Nitrogen--|--Phosphorus-|
                         Span   Max   Min   Rad  [day]    CO2   Rain  Trans  Photo         Photo         Photo
                         days    øC    øC MJ/m2     hr    ppm     mm     mm  synth Growth  synth Growth  synth Growth
---------------------------------------------------------------------------------------------------------------------
 Emergence-End Juvenile     7  28.3  15.7  21.5  11.95  369.1    0.0    3.7  0.000  0.000  0.002  0.004  0.000  0.000
 End Juvenil-Floral Init    5  27.6  15.5  19.8  11.95  369.1    0.0    2.9  0.000  0.000  0.001  0.004  0.000  0.000
 Floral Init-End Lf Grow   33  26.5  14.4  18.5  11.93  369.2   12.2  109.8  0.000  0.000  0.023  0.059  0.000  0.000
 End Lf Grth-Beg Grn Fil   14  24.6  14.6  14.2  11.91  369.3    2.2   28.7  0.026  0.085  0.094  0.235  0.000  0.000
 Grain Filling Phase       45  24.0  13.2  15.3  11.92  369.4    2.8   29.8  0.576  0.709  0.239  0.491  0.000  0.000

 Planting to Harvest      114  25.5  14.1  17.2  11.93  369.3   17.2  189.5  0.251  0.313  0.125  0.259  0.000  0.000
---------------------------------------------------------------------------------------------------------------------

*Resource Productivity
 Growing season length: 114 days 

 Precipitation during growing season        17.2 mm[rain]
   Dry Matter Productivity                 31.73 kg[DM]/m3[rain]          =  317.3 kg[DM]/ha per mm[rain]
   Yield Productivity                      13.53 kg[grain yield]/m3[rain] =  135.3 kg[yield]/ha per mm[rain]

 Evapotranspiration during growing season  189.5 mm[ET]
   Dry Matter Productivity                  2.88 kg[DM]/m3[ET]            =   28.8 kg[DM]/ha per mm[ET]
   Yield Productivity                       1.23 kg[grain yield]/m3[ET]   =   12.3 kg[yield]/ha per mm[ET]

 Transpiration during growing season        95.9 mm[EP]
   Dry Matter Productivity                  5.69 kg[DM]/m3[EP]            =   56.9 kg[DM]/ha per mm[EP]
   Yield Productivity                       2.43 kg[grain yield]/m3[EP]   =   24.3 kg[yield]/ha per mm[EP]

 Irrigation during growing season           90.0 mm[irrig]
   Dry Matter Productivity                  6.06 kg[DM]/m3[irrig]         =   60.6 kg[DM]/ha per mm[irrig]
   Yield Productivity                       2.59 kg[grain yield]/m3[irrig]=   25.9 kg[yield]/ha per mm[irrig]

 N uptake during growing season               46 kg[N uptake]/ha
   Dry Matter Productivity                 118.6 kg[DM]/kg[N uptake]
   Yield Productivity                       50.6 kg[yield]/kg[N uptake]

--------------------------------------------------------------------------------------------------------------

                     Maize YIELD :     2328 kg/ha    [Dry weight] 

**************************************************************************************************************

*DSSAT Cropping System Model Ver. 4.5.1.023 -Stub         AUG 09, 2014; 00:37:50
                                                                                
*RUN   7        : MACH0012_1                MZCER045 MACH0012    1              
 MODEL          : MZCER045 - Maize                                              
 EXPERIMENT     : MACH0012 MZ                                                   
 DATA PATH      :                                                               
 TREATMENT  1   : MACH0012_1                MZCER045                            
                                                                                
                                                                                
 CROP           : Maize            CULTIVAR : SHORT SEASON     ECOTYPE :IB0001  
 STARTING DATE  : JUL 14 1999                                                   
 PLANTING DATE  : AUG 13 1999        PLANTS/m2 :  3.5     ROW SPACING :  75.cm  
 WEATHER        : MK10   1999                                                   
 SOIL           : TOA0235044     TEXTURE : -99   - -99                          
 SOIL INITIAL C : DEPTH:140cm EXTR. H2O:162.8mm  NO3:  9.2kg/ha  NH4:  1.1kg/ha 
 WATER BALANCE  : IRRIGATE ON REPORTED DATE(S)                                  
 IRRIGATION     :       90 mm IN     2 APPLICATIONS                             
 NITROGEN BAL.  : SOIL-N & N-UPTAKE SIMULATION; NO N-FIXATION                   
 N-FERTILIZER   :        0 kg/ha IN     0 APPLICATIONS                          
 RESIDUE/MANURE : INITIAL :   500 kg/ha ;       0 kg/ha IN     1 APPLICATIONS   
 ENVIRONM. OPT. : DAYL=    0.00  SRAD=    0.00  TMAX=    0.00  TMIN=    0.00    
                  RAIN=    0.00  CO2 =    0.00  DEW =    0.00  WIND=    0.00    
 SIMULATION OPT : WATER   :Y  NITROGEN:Y  N-FIX:N  PHOSPH :N  PESTS  :N         
                  PHOTO   :C  ET      :R  INFIL:S  HYDROL :R  SOM    :P         
                  CO2 368ppm  NSWIT   :1  EVAP :S  SOIL   :2                    
 MANAGEMENT OPT : PLANTING:R  IRRIG   :R  FERT :R  RESIDUE:R  HARVEST:M         
                  WEATHER :M  TILLAGE :Y                                        
                                                                                
*SUMMARY OF SOIL AND GENETIC INPUT PARAMETERS                                   
                                                                                
   SOIL LOWER UPPER   SAT  EXTR  INIT   ROOT   BULK     pH    NO3    NH4    ORG 
  DEPTH LIMIT LIMIT    SW    SW    SW   DIST   DENS                          C  
   cm   cm3/cm3    cm3/cm3    cm3/cm3         g/cm3         ugN/g  ugN/g     %  
------------------------------------------------------------------------------- 
  0-  5 0.140 0.220 0.484 0.080 0.180   1.00   1.30   6.50   0.50   0.06   0.70 
  5- 15 0.140 0.220 0.484 0.080 0.180   1.00   1.30   6.50   0.50   0.06   0.70 
 15- 30 0.140 0.220 0.484 0.080 0.180   0.95   1.30   6.50   0.50   0.06   0.70 
 30- 40 0.310 0.440 0.450 0.130 0.375   0.72   1.40   6.00   0.50   0.06 -99.00 
 40- 50 0.330 0.450 0.484 0.120 0.390   0.51   1.30   6.40   0.50   0.06 -99.00 
 50- 61 0.330 0.450 0.484 0.120 0.390   0.51   1.30   6.40   0.50   0.06 -99.00 
 61- 71 0.330 0.450 0.484 0.120 0.390   0.33   1.30   6.40   0.50   0.06 -99.00 
 71- 82 0.330 0.450 0.484 0.120 0.390   0.33   1.30   6.40   0.50   0.06 -99.00 
 82-111 0.300 0.430 0.484 0.130 0.365   0.19   1.30   6.70   0.50   0.06 -99.00 
111-140 0.300 0.430 0.484 0.130 0.365   0.10   1.30   6.70   0.50   0.06 -99.00 
                                                                                
TOT-140  38.6  54.8  67.4  16.3  46.7  <--cm   -  kg/ha-->    9.2    1.1  27300 
SOIL ALBEDO    : 0.10      EVAPORATION LIMIT :*****         MIN. FACTOR  : 1.00 
RUNOFF CURVE # :60.00      DRAINAGE RATE     : 0.30         FERT. FACTOR : 0.92 
                                                                                
 Maize      CULTIVAR :990003-SHORT SEASON       ECOTYPE :IB0001                 
 P1     : 110.00  P2     : 0.3000  P5     : 680.00                              
 G2     : 820.40  G3     :  6.600  PHINT  : 38.900                              


*SIMULATED CROP AND SOIL STATUS AT MAIN DEVELOPMENT STAGES

 RUN NO.     7     MACH0012_1              

        CROP GROWTH     BIOMASS         LEAF   CROP N     STRESS      STRESS                                           
   DATE  AGE STAGE        kg/ha    LAI   NUM  kg/ha  %   H2O    N    P1    P2   RSTG                                   
 ------  --- ----------   -----  -----  ----  ---  ---  ----  ----  ----  ----  ----                                   
 14 JUL    0 Start Sim        0   0.00   0.0    0  0.0  0.00  0.00  0.00  0.00     7
 13 AUG    0 Sowing           0   0.00   0.0    0  0.0  0.00  0.00  0.00  0.00     8
 14 AUG    1 Germinate        0   0.00   0.0    0  0.0  0.00  0.00  0.00  0.00     9
 21 AUG    8 Emergence       14   0.00   1.9    1  4.4  0.00  0.00  0.00  0.00     1
 30 AUG   17 End Juveni      10   0.01   5.5    1  5.5  0.75  0.00  0.00  0.00     2
  4 SEP   22 Floral Ini      13   0.02   7.0    1  4.2  0.73  0.00  0.00  0.00     3
  4 OCT   52 75% Silkin    1847   0.69  15.0   20  1.1  0.18  0.13  0.00  0.00     4
 18 OCT   66 Beg Gr Fil    2478   0.47  15.0   24  1.0  0.59  0.35  0.00  0.00     5
 22 NOV  101 End Gr Fil    3540   0.21  15.0   30  0.9  0.41  0.23  0.00  0.00     6
 25 NOV  104 Maturity      3540   0.21  15.0   30  0.9  0.00  0.30  0.00  0.00    10
 25 NOV  104 Harvest       3540   0.21  15.0   30  0.9  0.00  0.00  0.00  0.00    10


*MAIN GROWTH AND DEVELOPMENT VARIABLES

@     VARIABLE                                         SIMULATED     MEASURED
      --------                                         ---------     --------
      Anthesis day (dap)                                      52          -99
      Physiological maturity day (dap)                       104          -99
      Yield at harvest maturity (kg [dm]/ha)                1134          105
      Number at maturity (no/m2)                             621          -99
      Unit wt at maturity (g [dm]/unit)                   0.1827          -99
      Number at maturity (no/unit)                         177.3          -99
      Tops weight at maturity (kg [dm]/ha)                  3540          -99
      By-product produced (stalk) at maturity (kg[dm]/ha    2419            0
      Leaf area index, maximum                              0.70          -99
      Harvest index at maturity                            0.320          -99
      Grain N at maturity (kg/ha)                             17          -99
      Tops N at maturity (kg/ha)                              30          -99
      Stem N at maturity (kg/ha)                              14          -99
      Grain N at maturity (%)                                1.5          -99
      Tops weight at anthesis (kg [dm]/ha)                  1722          -99
      Tops N at anthesis (kg/ha)                              20          -99
      Leaf number per stem at maturity                     15.02          -99
      Emergence day (dap)                                      8          -99


*ENVIRONMENTAL AND STRESS FACTORS

 |-----Development Phase------|-----------------Environment-----------------|----------------Stress-----------------|
                              |-----------Average-----------|---Cumulative--|         (0=Min, 1=Max Stress)         |
                         Time  Temp  Temp Solar Photop                Evapo |----Water---|--Nitrogen--|--Phosphorus-|
                         Span   Max   Min   Rad  [day]    CO2   Rain  Trans  Photo         Photo         Photo
                         days    øC    øC MJ/m2     hr    ppm     mm     mm  synth Growth  synth Growth  synth Growth
---------------------------------------------------------------------------------------------------------------------
 Emergence-End Juvenile     9  26.0  13.9  17.7  11.96  368.4    0.0    1.4  0.537  0.655  0.002  0.005  0.000  0.000
 End Juvenil-Floral Init    5  23.9  14.6  13.1  11.97  368.4    0.0    0.7  0.624  0.750  0.002  0.004  0.000  0.000
 Floral Init-End Lf Grow   30  27.5  13.5  21.2  12.00  368.4    0.0   96.3  0.161  0.190  0.047  0.118  0.000  0.000
 End Lf Grth-Beg Grn Fil   14  26.8  14.8  17.8  12.03  368.5    0.0   16.3  0.368  0.565  0.144  0.359  0.000  0.000
 Grain Filling Phase       35  27.8  15.5  20.1  12.06  368.6  156.2   81.9  0.384  0.431  0.092  0.231  0.000  0.000

 Planting to Harvest      104  26.7  14.6  18.9  12.02  368.5  178.5  209.5  0.302  0.368  0.068  0.169  0.000  0.000
---------------------------------------------------------------------------------------------------------------------

*Resource Productivity
 Growing season length: 104 days 

 Precipitation during growing season       178.5 mm[rain]
   Dry Matter Productivity                  1.98 kg[DM]/m3[rain]          =   19.8 kg[DM]/ha per mm[rain]
   Yield Productivity                       0.64 kg[grain yield]/m3[rain] =    6.4 kg[yield]/ha per mm[rain]

 Evapotranspiration during growing season  209.5 mm[ET]
   Dry Matter Productivity                  1.69 kg[DM]/m3[ET]            =   16.9 kg[DM]/ha per mm[ET]
   Yield Productivity                       0.54 kg[grain yield]/m3[ET]   =    5.4 kg[yield]/ha per mm[ET]

 Transpiration during growing season        61.3 mm[EP]
   Dry Matter Productivity                  5.77 kg[DM]/m3[EP]            =   57.7 kg[DM]/ha per mm[EP]
   Yield Productivity                       1.85 kg[grain yield]/m3[EP]   =   18.5 kg[yield]/ha per mm[EP]

 Irrigation during growing season           90.0 mm[irrig]
   Dry Matter Productivity                  3.93 kg[DM]/m3[irrig]         =   39.3 kg[DM]/ha per mm[irrig]
   Yield Productivity                       1.26 kg[grain yield]/m3[irrig]=   12.6 kg[yield]/ha per mm[irrig]

 N uptake during growing season               33 kg[N uptake]/ha
   Dry Matter Productivity                 107.3 kg[DM]/kg[N uptake]
   Yield Productivity                       34.4 kg[yield]/kg[N uptake]

--------------------------------------------------------------------------------------------------------------

                     Maize YIELD :     1134 kg/ha    [Dry weight] 

**************************************************************************************************************

*DSSAT Cropping System Model Ver. 4.5.1.023 -Stub         AUG 09, 2014; 00:37:50
                                                                                
*RUN   8        : MACH0013_1                MZCER045 MACH0013    1              
 MODEL          : MZCER045 - Maize                                              
 EXPERIMENT     : MACH0013 MZ                                                   
 DATA PATH      :                                                               
 TREATMENT  1   : MACH0013_1                MZCER045                            
                                                                                
                                                                                
 CROP           : Maize            CULTIVAR : SHORT SEASON     ECOTYPE :IB0001  
 STARTING DATE  : JUL 14 1999                                                   
 PLANTING DATE  : AUG 13 1999        PLANTS/m2 :  3.5     ROW SPACING :  75.cm  
 WEATHER        : MK10   1999                                                   
 SOIL           : TOA0235044     TEXTURE : -99   - -99                          
 SOIL INITIAL C : DEPTH:140cm EXTR. H2O:162.8mm  NO3:  9.2kg/ha  NH4:  1.1kg/ha 
 WATER BALANCE  : IRRIGATE ON REPORTED DATE(S)                                  
 IRRIGATION     :       90 mm IN     2 APPLICATIONS                             
 NITROGEN BAL.  : SOIL-N & N-UPTAKE SIMULATION; NO N-FIXATION                   
 N-FERTILIZER   :        0 kg/ha IN     0 APPLICATIONS                          
 RESIDUE/MANURE : INITIAL :   500 kg/ha ;       0 kg/ha IN     1 APPLICATIONS   
 ENVIRONM. OPT. : DAYL=    0.00  SRAD=    0.00  TMAX=    0.00  TMIN=    0.00    
                  RAIN=    0.00  CO2 =    0.00  DEW =    0.00  WIND=    0.00    
 SIMULATION OPT : WATER   :Y  NITROGEN:Y  N-FIX:N  PHOSPH :N  PESTS  :N         
                  PHOTO   :C  ET      :R  INFIL:S  HYDROL :R  SOM    :P         
                  CO2 368ppm  NSWIT   :1  EVAP :S  SOIL   :2                    
 MANAGEMENT OPT : PLANTING:R  IRRIG   :R  FERT :R  RESIDUE:R  HARVEST:M         
                  WEATHER :M  TILLAGE :Y                                        
                                                                                
*SUMMARY OF SOIL AND GENETIC INPUT PARAMETERS                                   
                                                                                
   SOIL LOWER UPPER   SAT  EXTR  INIT   ROOT   BULK     pH    NO3    NH4    ORG 
  DEPTH LIMIT LIMIT    SW    SW    SW   DIST   DENS                          C  
   cm   cm3/cm3    cm3/cm3    cm3/cm3         g/cm3         ugN/g  ugN/g     %  
------------------------------------------------------------------------------- 
  0-  5 0.140 0.220 0.484 0.080 0.180   1.00   1.30   6.50   0.50   0.06   0.70 
  5- 15 0.140 0.220 0.484 0.080 0.180   1.00   1.30   6.50   0.50   0.06   0.70 
 15- 30 0.140 0.220 0.484 0.080 0.180   0.95   1.30   6.50   0.50   0.06   0.70 
 30- 40 0.310 0.440 0.450 0.130 0.375   0.72   1.40   6.00   0.50   0.06 -99.00 
 40- 50 0.330 0.450 0.484 0.120 0.390   0.51   1.30   6.40   0.50   0.06 -99.00 
 50- 61 0.330 0.450 0.484 0.120 0.390   0.51   1.30   6.40   0.50   0.06 -99.00 
 61- 71 0.330 0.450 0.484 0.120 0.390   0.33   1.30   6.40   0.50   0.06 -99.00 
 71- 82 0.330 0.450 0.484 0.120 0.390   0.33   1.30   6.40   0.50   0.06 -99.00 
 82-111 0.300 0.430 0.484 0.130 0.365   0.19   1.30   6.70   0.50   0.06 -99.00 
111-140 0.300 0.430 0.484 0.130 0.365   0.10   1.30   6.70   0.50   0.06 -99.00 
                                                                                
TOT-140  38.6  54.8  67.4  16.3  46.7  <--cm   -  kg/ha-->    9.2    1.1  27300 
SOIL ALBEDO    : 0.10      EVAPORATION LIMIT :*****         MIN. FACTOR  : 1.00 
RUNOFF CURVE # :60.00      DRAINAGE RATE     : 0.30         FERT. FACTOR : 0.92 
                                                                                
 Maize      CULTIVAR :990003-SHORT SEASON       ECOTYPE :IB0001                 
 P1     : 110.00  P2     : 0.3000  P5     : 680.00                              
 G2     : 820.40  G3     :  6.600  PHINT  : 38.900                              


*SIMULATED CROP AND SOIL STATUS AT MAIN DEVELOPMENT STAGES

 RUN NO.     8     MACH0013_1              

        CROP GROWTH     BIOMASS         LEAF   CROP N     STRESS      STRESS                                           
   DATE  AGE STAGE        kg/ha    LAI   NUM  kg/ha  %   H2O    N    P1    P2   RSTG                                   
 ------  --- ----------   -----  -----  ----  ---  ---  ----  ----  ----  ----  ----                                   
 14 JUL    0 Start Sim        0   0.00   0.0    0  0.0  0.00  0.00  0.00  0.00     7
 13 AUG    0 Sowing           0   0.00   0.0    0  0.0  0.00  0.00  0.00  0.00     8
 14 AUG    1 Germinate        0   0.00   0.0    0  0.0  0.00  0.00  0.00  0.00     9
 21 AUG    8 Emergence       14   0.00   1.9    1  4.4  0.00  0.00  0.00  0.00     1
 30 AUG   17 End Juveni      10   0.01   5.5    1  5.5  0.75  0.00  0.00  0.00     2
  4 SEP   22 Floral Ini      13   0.02   7.0    1  4.2  0.73  0.00  0.00  0.00     3
  4 OCT   52 75% Silkin    1847   0.69  15.0   20  1.1  0.18  0.13  0.00  0.00     4
 18 OCT   66 Beg Gr Fil    2478   0.47  15.0   24  1.0  0.59  0.35  0.00  0.00     5
 22 NOV  101 End Gr Fil    3540   0.21  15.0   30  0.9  0.41  0.23  0.00  0.00     6
 25 NOV  104 Maturity      3540   0.21  15.0   30  0.9  0.00  0.30  0.00  0.00    10
 25 NOV  104 Harvest       3540   0.21  15.0   30  0.9  0.00  0.00  0.00  0.00    10


*MAIN GROWTH AND DEVELOPMENT VARIABLES

@     VARIABLE                                         SIMULATED     MEASURED
      --------                                         ---------     --------
      Anthesis day (dap)                                      52          -99
      Physiological maturity day (dap)                       104          -99
      Yield at harvest maturity (kg [dm]/ha)                1134          964
      Number at maturity (no/m2)                             621          -99
      Unit wt at maturity (g [dm]/unit)                   0.1827          -99
      Number at maturity (no/unit)                         177.3          -99
      Tops weight at maturity (kg [dm]/ha)                  3540          -99
      By-product produced (stalk) at maturity (kg[dm]/ha    2419            0
      Leaf area index, maximum                              0.70          -99
      Harvest index at maturity                            0.320          -99
      Grain N at maturity (kg/ha)                             17          -99
      Tops N at maturity (kg/ha)                              30          -99
      Stem N at maturity (kg/ha)                              14          -99
      Grain N at maturity (%)                                1.5          -99
[...]
 IRRIGATION     :       90 mm IN     2 APPLICATIONS                             
 NITROGEN BAL.  : SOIL-N & N-UPTAKE SIMULATION; NO N-FIXATION                   
 N-FERTILIZER   :        5 kg/ha IN     2 APPLICATIONS                          
 RESIDUE/MANURE : INITIAL :   500 kg/ha ;       0 kg/ha IN     1 APPLICATIONS   
 ENVIRONM. OPT. : DAYL=    0.00  SRAD=    0.00  TMAX=    0.00  TMIN=    0.00    
                  RAIN=    0.00  CO2 =    0.00  DEW =    0.00  WIND=    0.00    
 SIMULATION OPT : WATER   :Y  NITROGEN:Y  N-FIX:N  PHOSPH :N  PESTS  :N         
                  PHOTO   :C  ET      :R  INFIL:S  HYDROL :R  SOM    :P         
                  CO2 368ppm  NSWIT   :1  EVAP :S  SOIL   :2                    
 MANAGEMENT OPT : PLANTING:R  IRRIG   :R  FERT :R  RESIDUE:R  HARVEST:M         
                  WEATHER :M  TILLAGE :Y                                        
                                                                                
*SUMMARY OF SOIL AND GENETIC INPUT PARAMETERS                                   
                                                                                
   SOIL LOWER UPPER   SAT  EXTR  INIT   ROOT   BULK     pH    NO3    NH4    ORG 
  DEPTH LIMIT LIMIT    SW    SW    SW   DIST   DENS                          C  
   cm   cm3/cm3    cm3/cm3    cm3/cm3         g/cm3         ugN/g  ugN/g     %  
------------------------------------------------------------------------------- 
  0-  5 0.170 0.270 0.484 0.100 0.220   1.00   1.30   6.50   0.50   0.06   0.90 
  5- 15 0.170 0.270 0.484 0.100 0.220   1.00   1.30   6.50   0.50   0.06   0.90 
 15- 30 0.170 0.270 0.484 0.100 0.220   0.95   1.30   6.50   0.50   0.06   0.90 
 30- 40 0.310 0.440 0.450 0.130 0.375   0.72   1.40   6.00   0.50   0.06 -99.00 
 40- 50 0.330 0.450 0.484 0.120 0.390   0.51   1.30   6.40   0.50   0.06 -99.00 
 50- 61 0.330 0.450 0.484 0.120 0.390   0.51   1.30   6.40   0.50   0.06 -99.00 
 61- 71 0.330 0.450 0.484 0.120 0.390   0.33   1.30   6.40   0.50   0.06 -99.00 
 71- 82 0.330 0.450 0.484 0.120 0.390   0.33   1.30   6.40   0.50   0.06 -99.00 
 82-111 0.300 0.430 0.484 0.130 0.365   0.19   1.30   6.70   0.50   0.06 -99.00 
111-140 0.300 0.430 0.484 0.130 0.365   0.10   1.30   6.70   0.50   0.06 -99.00 
                                                                                
TOT-140  39.5  56.3  67.4  16.9  47.9  <--cm   -  kg/ha-->    9.2    1.1  35100 
SOIL ALBEDO    : 0.10      EVAPORATION LIMIT :*****         MIN. FACTOR  : 1.00 
RUNOFF CURVE # :60.00      DRAINAGE RATE     : 0.30         FERT. FACTOR : 0.92 
                                                                                
 Maize      CULTIVAR :990003-SHORT SEASON       ECOTYPE :IB0001                 
 P1     : 110.00  P2     : 0.3000  P5     : 680.00                              
 G2     : 820.40  G3     :  6.600  PHINT  : 38.900                              


*SIMULATED CROP AND SOIL STATUS AT MAIN DEVELOPMENT STAGES

 RUN NO.    46     MACH0255_1              

        CROP GROWTH     BIOMASS         LEAF   CROP N     STRESS      STRESS                                           
   DATE  AGE STAGE        kg/ha    LAI   NUM  kg/ha  %   H2O    N    P1    P2   RSTG                                   
 ------  --- ----------   -----  -----  ----  ---  ---  ----  ----  ----  ----  ----                                   
 16 MAR    0 Start Sim        0   0.00   0.0    0  0.0  0.00  0.00  0.00  0.00     7
 15 APR    0 Sowing           0   0.00   0.0    0  0.0  0.00  0.00  0.00  0.00     8
 16 APR    1 Germinate        0   0.00   0.0    0  0.0  0.00  0.00  0.00  0.00     9
 22 APR    7 Emergence       14   0.00   2.0    1  4.4  0.00  0.01  0.00  0.00     1
 30 APR   15 End Juveni      22   0.05   5.4    1  3.2  0.00  0.00  0.00  0.00     2
  5 MAY   20 Floral Ini      62   0.13   7.1    2  3.7  0.00  0.00  0.00  0.00     3
  6 JUN   52 75% Silkin    2519   1.17  15.3   36  1.4  0.00  0.04  0.00  0.00     4
 21 JUN   67 Beg Gr Fil    3942   0.91  15.3   38  1.0  0.36  0.18  0.00  0.00     5
  5 AUG  112 End Gr Fil    4904   0.19  15.3   38  0.8  0.80  0.38  0.00  0.00     6
  8 AUG  115 Maturity      4904   0.19  15.3   38  0.8  0.83  0.56  0.00  0.00    10
  8 AUG  115 Harvest       4904   0.19  15.3   38  0.8  0.00  0.00  0.00  0.00    10


*MAIN GROWTH AND DEVELOPMENT VARIABLES

@     VARIABLE                                         SIMULATED     MEASURED
      --------                                         ---------     --------
      Anthesis day (dap)                                      52          -99
      Physiological maturity day (dap)                       115          -99
      Yield at harvest maturity (kg [dm]/ha)                2020         1000
      Number at maturity (no/m2)                            1120          -99
      Unit wt at maturity (g [dm]/unit)                   0.1803          -99
      Number at maturity (no/unit)                         320.1          -99
      Tops weight at maturity (kg [dm]/ha)                  4904          -99
      By-product produced (stalk) at maturity (kg[dm]/ha    2904         1389
      Leaf area index, maximum                              1.18          -99
      Harvest index at maturity                            0.412          -99
      Grain N at maturity (kg/ha)                             27          -99
      Tops N at maturity (kg/ha)                              38          -99
      Stem N at maturity (kg/ha)                              10          -99
      Grain N at maturity (%)                                1.4          -99
      Tops weight at anthesis (kg [dm]/ha)                  2422          -99
      Tops N at anthesis (kg/ha)                              35          -99
      Leaf number per stem at maturity                     15.34          -99
      Emergence day (dap)                                      7          -99


*ENVIRONMENTAL AND STRESS FACTORS

 |-----Development Phase------|-----------------Environment-----------------|----------------Stress-----------------|
                              |-----------Average-----------|---Cumulative--|         (0=Min, 1=Max Stress)         |
                         Time  Temp  Temp Solar Photop                Evapo |----Water---|--Nitrogen--|--Phosphorus-|
                         Span   Max   Min   Rad  [day]    CO2   Rain  Trans  Photo         Photo         Photo
                         days    øC    øC MJ/m2     hr    ppm     mm     mm  synth Growth  synth Growth  synth Growth
---------------------------------------------------------------------------------------------------------------------
 Emergence-End Juvenile     8  26.1  15.5  19.1  11.95  368.1   18.4   29.9  0.000  0.000  0.002  0.004  0.000  0.000
 End Juvenil-Floral Init    5  25.4  16.2  16.5  11.94  368.1   33.9   18.9  0.000  0.000  0.002  0.004  0.000  0.000
 Floral Init-End Lf Grow   32  25.9  14.8  18.1  11.93  368.2    4.7  108.5  0.000  0.000  0.014  0.036  0.000  0.000
 End Lf Grth-Beg Grn Fil   15  25.7  14.1  16.3  11.91  368.2    0.0   29.1  0.208  0.323  0.070  0.176  0.000  0.000
 Grain Filling Phase       45  24.0  13.1  14.3  11.92  368.3    0.0   18.9  0.695  0.797  0.151  0.367  0.000  0.000

 Planting to Harvest      115  25.2  14.2  16.4  11.93  368.2   57.5  212.8  0.319  0.376  0.080  0.191  0.000  0.000
---------------------------------------------------------------------------------------------------------------------

*Resource Productivity
 Growing season length: 115 days 

 Precipitation during growing season        57.5 mm[rain]
   Dry Matter Productivity                  8.53 kg[DM]/m3[rain]          =   85.3 kg[DM]/ha per mm[rain]
   Yield Productivity                       3.51 kg[grain yield]/m3[rain] =   35.1 kg[yield]/ha per mm[rain]

 Evapotranspiration during growing season  212.8 mm[ET]
   Dry Matter Productivity                  2.30 kg[DM]/m3[ET]            =   23.0 kg[DM]/ha per mm[ET]
   Yield Productivity                       0.95 kg[grain yield]/m3[ET]   =    9.5 kg[yield]/ha per mm[ET]

 Transpiration during growing season        81.4 mm[EP]
   Dry Matter Productivity                  6.03 kg[DM]/m3[EP]            =   60.3 kg[DM]/ha per mm[EP]
   Yield Productivity                       2.48 kg[grain yield]/m3[EP]   =   24.8 kg[yield]/ha per mm[EP]

 Irrigation during growing season           90.0 mm[irrig]
   Dry Matter Productivity                  5.45 kg[DM]/m3[irrig]         =   54.5 kg[DM]/ha per mm[irrig]
   Yield Productivity                       2.24 kg[grain yield]/m3[irrig]=   22.4 kg[yield]/ha per mm[irrig]

 N applied during growing season              5. kg[N applied]/ha
   Dry Matter Productivity                 980.9 kg[DM]/kg[N applied]
   Yield Productivity                      404.0 kg[yield]/kg[N applied]

 N uptake during growing season               45 kg[N uptake]/ha
   Dry Matter Productivity                 109.0 kg[DM]/kg[N uptake]
   Yield Productivity                       44.9 kg[yield]/kg[N uptake]

--------------------------------------------------------------------------------------------------------------

                     Maize YIELD :     2020 kg/ha    [Dry weight] 

**************************************************************************************************************

*DSSAT Cropping System Model Ver. 4.5.1.023 -Stub         AUG 09, 2014; 00:37:52
                                                                                
*RUN  47        : MACH0256_1                MZCER045 MACH0256    1              
 MODEL          : MZCER045 - Maize                                              
 EXPERIMENT     : MACH0256 MZ                                                   
 DATA PATH      :                                                               
 TREATMENT  1   : MACH0256_1                MZCER045                            
                                                                                
                                                                                
 CROP           : Maize            CULTIVAR : SHORT SEASON     ECOTYPE :IB0001  
 STARTING DATE  : MAR 16 1999                                                   
 PLANTING DATE  : APR 15 1999        PLANTS/m2 :  3.5     ROW SPACING :  75.cm  
 WEATHER        : MK10   1999                                                   
 SOIL           : TOA0235085     TEXTURE : -99   - -99                          
 SOIL INITIAL C : DEPTH:140cm EXTR. H2O:168.8mm  NO3:  9.2kg/ha  NH4:  1.1kg/ha 
 WATER BALANCE  : IRRIGATE ON REPORTED DATE(S)                                  
 IRRIGATION     :       90 mm IN     2 APPLICATIONS                             
 NITROGEN BAL.  : SOIL-N & N-UPTAKE SIMULATION; NO N-FIXATION                   
 N-FERTILIZER   :        5 kg/ha IN     2 APPLICATIONS                          
 RESIDUE/MANURE : INITIAL :   500 kg/ha ;      10 kg/ha IN     1 APPLICATIONS   
 ENVIRONM. OPT. : DAYL=    0.00  SRAD=    0.00  TMAX=    0.00  TMIN=    0.00    
                  RAIN=    0.00  CO2 =    0.00  DEW =    0.00  WIND=    0.00    
 SIMULATION OPT : WATER   :Y  NITROGEN:Y  N-FIX:N  PHOSPH :N  PESTS  :N         
                  PHOTO   :C  ET      :R  INFIL:S  HYDROL :R  SOM    :P         
                  CO2 368ppm  NSWIT   :1  EVAP :S  SOIL   :2                    
 MANAGEMENT OPT : PLANTING:R  IRRIG   :R  FERT :R  RESIDUE:R  HARVEST:M         
                  WEATHER :M  TILLAGE :Y                                        
                                                                                
*SUMMARY OF SOIL AND GENETIC INPUT PARAMETERS                                   
                                                                                
   SOIL LOWER UPPER   SAT  EXTR  INIT   ROOT   BULK     pH    NO3    NH4    ORG 
  DEPTH LIMIT LIMIT    SW    SW    SW   DIST   DENS                          C  
   cm   cm3/cm3    cm3/cm3    cm3/cm3         g/cm3         ugN/g  ugN/g     %  
------------------------------------------------------------------------------- 
  0-  5 0.170 0.270 0.484 0.100 0.220   1.00   1.30   6.50   0.50   0.06   0.90 
  5- 15 0.170 0.270 0.484 0.100 0.220   1.00   1.30   6.50   0.50   0.06   0.90 
 15- 30 0.170 0.270 0.484 0.100 0.220   0.95   1.30   6.50   0.50   0.06   0.90 
 30- 40 0.310 0.440 0.450 0.130 0.375   0.72   1.40   6.00   0.50   0.06 -99.00 
 40- 50 0.330 0.450 0.484 0.120 0.390   0.51   1.30   6.40   0.50   0.06 -99.00 
 50- 61 0.330 0.450 0.484 0.120 0.390   0.51   1.30   6.40   0.50   0.06 -99.00 
 61- 71 0.330 0.450 0.484 0.120 0.390   0.33   1.30   6.40   0.50   0.06 -99.00 
 71- 82 0.330 0.450 0.484 0.120 0.390   0.33   1.30   6.40   0.50   0.06 -99.00 
 82-111 0.300 0.430 0.484 0.130 0.365   0.19   1.30   6.70   0.50   0.06 -99.00 
111-140 0.300 0.430 0.484 0.130 0.365   0.10   1.30   6.70   0.50   0.06 -99.00 
                                                                                
TOT-140  39.5  56.3  67.4  16.9  47.9  <--cm   -  kg/ha-->    9.2    1.1  35100 
SOIL ALBEDO    : 0.10      EVAPORATION LIMIT :*****         MIN. FACTOR  : 1.00 
RUNOFF CURVE # :60.00      DRAINAGE RATE     : 0.30         FERT. FACTOR : 0.92 
                                                                                
 Maize      CULTIVAR :990003-SHORT SEASON       ECOTYPE :IB0001                 
 P1     : 110.00  P2     : 0.3000  P5     : 680.00                              
 G2     : 820.40  G3     :  6.600  PHINT  : 38.900                              


*SIMULATED CROP AND SOIL STATUS AT MAIN DEVELOPMENT STAGES

 RUN NO.    47     MACH0256_1              

        CROP GROWTH     BIOMASS         LEAF   CROP N     STRESS      STRESS                                           
   DATE  AGE STAGE        kg/ha    LAI   NUM  kg/ha  %   H2O    N    P1    P2   RSTG                                   
 ------  --- ----------   -----  -----  ----  ---  ---  ----  ----  ----  ----  ----                                   
 16 MAR    0 Start Sim        0   0.00   0.0    0  0.0  0.00  0.00  0.00  0.00     7
 15 APR    0 Sowing           0   0.00   0.0    0  0.0  0.00  0.00  0.00  0.00     8
 16 APR    1 Germinate        0   0.00   0.0    0  0.0  0.00  0.00  0.00  0.00     9
 22 APR    7 Emergence       14   0.00   2.0    1  4.4  0.00  0.01  0.00  0.00     1
 30 APR   15 End Juveni      22   0.05   5.4    1  3.2  0.00  0.00  0.00  0.00     2
  5 MAY   20 Floral Ini      62   0.13   7.1    2  3.7  0.00  0.00  0.00  0.00     3
  6 JUN   52 75% Silkin    2587   1.20  15.3   38  1.5  0.00  0.02  0.00  0.00     4
 21 JUN   67 Beg Gr Fil    4037   0.95  15.3   40  1.0  0.40  0.11  0.00  0.00     5
  5 AUG  112 End Gr Fil    4965   0.19  15.3   40  0.8  0.81  0.30  0.00  0.00     6
  8 AUG  115 Maturity      4965   0.19  15.3   40  0.8  0.84  0.46  0.00  0.00    10
  8 AUG  115 Harvest       4965   0.19  15.3   40  0.8  0.00  0.00  0.00  0.00    10


*MAIN GROWTH AND DEVELOPMENT VARIABLES

@     VARIABLE                                         SIMULATED     MEASURED
      --------                                         ---------     --------
      Anthesis day (dap)                                      52          -99
      Physiological maturity day (dap)                       115          -99
      Yield at harvest maturity (kg [dm]/ha)                1993          227
      Number at maturity (no/m2)                            1141          -99
      Unit wt at maturity (g [dm]/unit)                   0.1747          -99
      Number at maturity (no/unit)                         326.0          -99
      Tops weight at maturity (kg [dm]/ha)                  4965          -99
      By-product produced (stalk) at maturity (kg[dm]/ha    2992          631
      Leaf area index, maximum                              1.24          -99
      Harvest index at maturity                            0.401          -99
      Grain N at maturity (kg/ha)                             29          -99
      Tops N at maturity (kg/ha)                              40          -99
      Stem N at maturity (kg/ha)                              11          -99
      Grain N at maturity (%)                                1.5          -99
      Tops weight at anthesis (kg [dm]/ha)                  2483          -99
      Tops N at anthesis (kg/ha)                              38          -99
      Leaf number per stem at maturity                     15.34          -99
      Emergence day (dap)                                      7          -99


*ENVIRONMENTAL AND STRESS FACTORS

 |-----Development Phase------|-----------------Environment-----------------|----------------Stress-----------------|
                              |-----------Average-----------|---Cumulative--|         (0=Min, 1=Max Stress)         |
                         Time  Temp  Temp Solar Photop                Evapo |----Water---|--Nitrogen--|--Phosphorus-|
                         Span   Max   Min   Rad  [day]    CO2   Rain  Trans  Photo         Photo         Photo
                         days    øC    øC MJ/m2     hr    ppm     mm     mm  synth Growth  synth Growth  synth Growth
---------------------------------------------------------------------------------------------------------------------
 Emergence-End Juvenile     8  26.1  15.5  19.1  11.95  368.1   18.4   29.9  0.000  0.000  0.002  0.004  0.000  0.000
 End Juvenil-Floral Init    5  25.4  16.2  16.5  11.94  368.1   33.9   19.0  0.000  0.000  0.002  0.004  0.000  0.000
 Floral Init-End Lf Grow   32  25.9  14.8  18.1  11.93  368.2    4.7  108.9  0.000  0.000  0.006  0.015  0.000  0.000
 End Lf Grth-Beg Grn Fil   15  25.7  14.1  16.3  11.91  368.2    0.0   29.1  0.226  0.354  0.045  0.112  0.000  0.000
 Grain Filling Phase       45  24.0  13.1  14.3  11.92  368.3    0.0   18.4  0.712  0.808  0.117  0.293  0.000  0.000

 Planting to Harvest      115  25.2  14.2  16.4  11.93  368.2   57.5  212.8  0.327  0.384  0.058  0.146  0.000  0.000
---------------------------------------------------------------------------------------------------------------------

*Resource Productivity
 Growing season length: 115 days 

 Precipitation during growing season        57.5 mm[rain]
   Dry Matter Productivity                  8.64 kg[DM]/m3[rain]          =   86.4 kg[DM]/ha per mm[rain]
   Yield Productivity                       3.47 kg[grain yield]/m3[rain] =   34.7 kg[yield]/ha per mm[rain]

 Evapotranspiration during growing season  212.8 mm[ET]
   Dry Matter Productivity                  2.33 kg[DM]/m3[ET]            =   23.3 kg[DM]/ha per mm[ET]
   Yield Productivity                       0.94 kg[grain yield]/m3[ET]   =    9.4 kg[yield]/ha per mm[ET]

 Transpiration during growing season        81.1 mm[EP]
   Dry Matter Productivity                  6.12 kg[DM]/m3[EP]            =   61.2 kg[DM]/ha per mm[EP]
   Yield Productivity                       2.46 kg[grain yield]/m3[EP]   =   24.6 kg[yield]/ha per mm[EP]

 Irrigation during growing season           90.0 mm[irrig]
   Dry Matter Productivity                  5.52 kg[DM]/m3[irrig]         =   55.2 kg[DM]/ha per mm[irrig]
   Yield Productivity                       2.21 kg[grain yield]/m3[irrig]=   22.1 kg[yield]/ha per mm[irrig]

 N applied during growing season              5. kg[N applied]/ha
   Dry Matter Productivity                 993.1 kg[DM]/kg[N applied]
   Yield Productivity                      398.6 kg[yield]/kg[N applied]

 N uptake during growing season               48 kg[N uptake]/ha
   Dry Matter Productivity                 103.4 kg[DM]/kg[N uptake]
   Yield Productivity                       41.5 kg[yield]/kg[N uptake]

--------------------------------------------------------------------------------------------------------------

                     Maize YIELD :     1993 kg/ha    [Dry weight] 

**************************************************************************************************************
