*Soil Organic Matter daily output file

*DSSAT Cropping System Model Ver. 4.5.1.023 -Stub         AUG 09, 2014; 00:37:49
                                                                                
*RUN   1        : MACH0001_1                MZCER045 MACH0001    1              
 MODEL          : MZCER045 - Maize                                              
 EXPERIMENT     : MACH0001 MZ                                                   
 DATA PATH      :                                                               
 TREATMENT  1   : MACH0001_1                MZCER045                            
  
@YEAR DOY   DAS    OMAC    SCDD    SOCD    SC0D    SCTD   SOMCT    LCTD    ONAC    SNDD    SOND    SN0D    SNTD   SOMNT    LNTD
 1999 074     0       0    9100  197147     200  196947  196947     0.0    0.00  1113.5 27292.5    4.40 27288.1 27288.1    0.00
 1999 075     1       0    9099  197140     198  196943  196943     0.0    0.00  1113.4 27292.0    4.41 27287.6 27287.6    0.00
 1999 076     2       0    9098  197134     196  196938  196938     0.0    0.00  1113.3 27291.5    4.41 27287.1 27287.1    0.00
 1999 077     3       0    9097  197128     194  196934  196934     0.0    0.00  1113.2 27291.1    4.42 27286.6 27286.6    0.00
 1999 078     4       0    9096  197120     191  196929  196929     0.0    0.00  1113.1 27290.5    4.42 27286.1 27286.1    0.00
 1999 079     5       0    9094  197112     188  196924  196924     0.0    0.00  1112.9 27290.0    4.43 27285.5 27285.5    0.00
 1999 080     6       0    9092  197104     185  196919  196919     0.0    0.00  1112.7 27289.4    4.43 27285.0 27285.0    0.00
 1999 081     7       0    9091  197096     182  196914  196914     0.0    0.00  1112.6 27288.9    4.43 27284.5 27284.5    0.00
 1999 082     8       0    9089  197089     179  196909  196909     0.0    0.00  1112.4 27288.4    4.43 27284.0 27284.0    0.00
 1999 083     9       0    9087  197082     177  196905  196905     0.0    0.00  1112.3 27287.9    4.42 27283.5 27283.5    0.00
 1999 084    10       0    9086  197076     175  196900  196900     0.0    0.00  1112.1 27287.4    4.42 27283.0 27283.0    0.00
 1999 085    11       0    9084  197068     173  196895  196895     0.0    0.00  1111.9 27286.8    4.41 27282.4 27282.4    0.00
 1999 086    12       0    9082  197060     171  196888  196888     0.0    0.00  1111.8 27286.1    4.41 27281.7 27281.7    0.00
 1999 087    13       0    9080  197051     169  196882  196882     0.0    0.00  1111.6 27285.5    4.40 27281.1 27281.1    0.00
 1999 088    14       0    9079  197042     167  196875  196875     0.0    0.00  1111.4 27284.8    4.39 27280.4 27280.4    0.00
 1999 089    15       0    9077  197033     164  196869  196869     0.0    0.00  1111.3 27284.1    4.38 27279.7 27279.7    0.00
 1999 090    16       0    9075  197024     162  196862  196862     0.0    0.00  1111.1 27283.4    4.37 27279.1 27279.1    0.00
 1999 091    17       0    9073  197016     160  196856  196856     0.0    0.00  1110.9 27282.8    4.35 27278.4 27278.4    0.00
 1999 092    18       0    9072  197008     158  196850  196850     0.0    0.00  1110.8 27282.2    4.34 27277.8 27277.8    0.00
 1999 093    19       0    9070  196999     156  196844  196844     0.0    0.00  1110.6 27281.5    4.32 27277.2 27277.2    0.00
 1999 094    20       0    9068  196991     154  196838  196838     0.0    0.00  1110.4 27280.9    4.30 27276.6 27276.6    0.00
 1999 095    21       0    9067  196985     152  196833  196833     0.0    0.00  1110.3 27280.4    4.28 27276.1 27276.1    0.00
 1999 096    22       0    9065  196978     151  196827  196827     0.0    0.00  1110.2 27279.8    4.27 27275.6 27275.6    0.00
 1999 097    23       0    9064  196971     149  196822  196822     0.0    0.00  1110.1 27279.3    4.25 27275.0 27275.0    0.00
 1999 098    24    7141    9078  199758    1549  198209  196843  1365.9  344.20  1111.0 27611.3  171.09 27440.2 27276.4  163.82
 1999 099    25    7141    9077  199692    1521  198171  196862  1309.4  344.20  1110.4 27599.7  166.04 27433.6 27277.7  155.90
 1999 100    26    7141    9090  199627    1493  198134  196881  1253.6  344.20  1111.5 27588.2  160.89 27427.3 27279.2  148.03
 1999 101    27    7141    9102  199569    1469  198101  196897  1203.5  344.20  1112.6 27578.3  156.68 27421.7 27280.7  140.97
 1999 102    28    7141    9113  199513    1445  198068  196913  1155.4  344.20  1113.7 27568.9  152.47 27416.4 27282.2  134.21
 1999 103    29    7141    9124  199455    1420  198035  196927  1108.0  344.20  1114.8 27559.4  148.05 27411.3 27283.8  127.54
 1999 104    30    7141    9134  199397    1394  198003  196941  1061.8  344.20  1115.9 27550.1  143.55 27406.5 27285.5  121.06
 1999 105    31    7141    9144  199339    1367  197972  196955  1017.2  344.20  1117.1 27541.1  139.06 27402.0 27287.2  114.81
 1999 106    32    7141    9152  199287    1343  197944  196966   977.8  344.20  1118.2 27533.2  135.05 27398.2 27288.9  109.28
 1999 107    33    7141    9160  199240    1322  197917  196976   941.6  344.20  1119.1 27526.1  131.60 27394.5 27290.3  104.21
 1999 108    34    7141    9166  199197    1304  197893  196984   908.5  344.20  1120.0 27519.8  128.64 27391.2 27291.6   99.58
 1999 109    35    7141    9173  199158    1288  197870  196992   878.2  344.20  1120.9 27514.3  126.13 27388.1 27292.8   95.35
 1999 110    36    7141    9178  199123    1275  197848  196998   850.6  344.20  1121.7 27509.3  124.01 27385.3 27293.8   91.49
 1999 111    37    7141    9183  199090    1262  197828  197003   824.3  344.20  1122.5 27504.7  122.02 27382.7 27294.8   87.83
 1999 112    38    7141    9189  199046    1243  197802  197010   792.6  344.20  1123.6 27498.7  118.84 27379.8 27296.4   83.41
 1999 113    39    7141    9194  199002    1223  197779  197016   763.0  344.20  1124.7 27492.8  115.66 27377.2 27297.9   79.29
 1999 114    40    7141    9199  198959    1202  197756  197022   734.6  344.20  1125.6 27487.0  112.44 27374.6 27299.2   75.36
 1999 115    41    7141    9203  198915    1181  197734  197027   707.2  344.20  1126.5 27481.2  109.15 27372.0 27300.5   71.56
 1999 116    42    7141    9207  198874    1160  197714  197031   682.4  344.20  1127.3 27475.6  105.94 27369.7 27301.5   68.14
 1999 117    43    7141    9210  198837    1141  197696  197035   661.0  344.20  1127.9 27470.7  103.11 27367.6 27302.4   65.19
 1999 118    44    7141    9213  198801    1122  197678  197038   640.0  344.20  1128.5 27465.9  100.36 27365.5 27303.2   62.29
 1999 119    45    7141    9215  198764    1103  197661  197042   619.1  344.20  1129.1 27460.9   97.51 27363.4 27304.0   59.41
 1999 120    46    7141    9218  198733    1088  197645  197044   601.3  344.20  1129.6 27457.1   95.50 27361.6 27304.7   56.97
 1999 121    47    7141    9220  198706    1076  197630  197045   585.3  344.20  1130.0 27453.6   93.71 27359.9 27305.2   54.78
 1999 122    48    7141    9221  198679    1063  197616  197046   570.2  344.20  1130.4 27450.3   91.94 27358.3 27305.6   52.70
 1999 123    49    7141    9223  198650    1049  197601  197047   554.1  344.20  1130.8 27446.5   89.92 27356.6 27306.1   50.49
 1999 124    50    7141    9224  198619    1034  197585  197047   538.0  344.20  1131.2 27442.6   87.75 27354.8 27306.5   48.29
 1999 125    51    7141    9226  198588    1018  197570  197048   522.2  344.20  1131.5 27438.6   85.54 27353.0 27306.9   46.14
 1999 126    52    7141    9227  198557    1002  197555  197048   506.4  344.20  1131.8 27434.5   83.27 27351.3 27307.2   44.00
 1999 127    53    7141    9228  198526     986  197540  197049   491.5  344.20  1132.1 27430.6   81.12 27349.5 27307.5   41.97
 1999 128    54    7141    9229  198498     972  197527  197049   478.2  344.20  1132.4 27427.2   79.28 27347.9 27307.8   40.16
 1999 129    55    7141    9230  198476     962  197514  197048   466.4  344.20  1132.6 27424.4   77.85 27346.5 27308.0   38.56
 1999 130    56    7141    9230  198456     954  197503  197047   456.0  344.20  1132.8 27421.9   76.63 27345.2 27308.1   37.12
 1999 131    57    7141    9230  198438     945  197493  197046   447.4  344.20  1132.9 27419.4   75.36 27344.0 27308.1   35.95
 1999 132    58    7141    9231  198418     935  197483  197045   438.0  344.20  1133.0 27416.7   73.92 27342.7 27308.1   34.66
 1999 133    59    7141    9231  198396     925  197471  197043   427.9  344.20  1133.1 27413.7   72.34 27341.3 27308.0   33.27
 1999 134    60    7141    9231  198372     913  197459  197042   417.5  344.20  1133.2 27410.5   70.70 27339.8 27308.0   31.86
 1999 135    61    7141    9231  198349     902  197447  197040   407.4  344.20  1133.2 27407.5   69.07 27338.4 27307.9   30.47
 1999 136    62    7141    9231  198326     890  197435  197038   397.3  344.20  1133.3 27404.3   67.42 27336.9 27307.8   29.09
 1999 137    63    7141    9231  198303     879  197424  197036   387.7  344.20  1133.3 27401.4   65.87 27335.5 27307.7   27.77
 1999 138    64    7141    9231  198281     869  197412  197033   378.8  344.20  1133.3 27398.7   64.51 27334.2 27307.6   26.55
 1999 139    65    7141    9230  198262     860  197402  197031   371.1  344.20  1133.3 27396.3   63.36 27332.9 27307.4   25.49
 1999 140    66    7141    9230  198246     853  197393  197028   364.5  344.20  1133.3 27394.2   62.38 27331.8 27307.3   24.57
 1999 141    67    7141    9229  198231     846  197385  197026   359.0  344.20  1133.2 27392.4   61.57 27330.8 27307.1   23.79
 1999 142    68    7141    9229  198216     840  197376  197023   353.4  344.20  1133.2 27390.4   60.62 27329.8 27306.8   23.00
 1999 143    69    7141    9228  198197     831  197366  197019   346.9  344.20  1133.2 27388.0   59.47 27328.6 27306.5   22.10
 1999 144    70    7141    9227  198178     822  197356  197016   340.1  344.20  1133.1 27385.5   58.20 27327.3 27306.1   21.15
 1999 145    71    7141    9226  198157     812  197346  197012   333.1  344.20  1133.0 27382.8   56.87 27325.9 27305.7   20.19
 1999 146    72    7141    9226  198136     801  197335  197009   326.2  344.20  1132.8 27380.0   55.50 27324.5 27305.3   19.24
 1999 147    73    7141    9225  198116     791  197325  197006   319.6  344.20  1132.7 27377.4   54.21 27323.2 27304.8   18.33
 1999 148    74    7141    9224  198098     782  197317  197002   314.2  344.20  1132.5 27375.1   53.10 27322.0 27304.4   17.57
 1999 149    75    7141    9223  198084     774  197309  196999   309.9  344.20  1132.4 27373.2   52.20 27321.0 27304.1   16.95
 1999 150    76    7141    9222  198071     768  197303  196997   306.6  344.20  1132.3 27371.7   51.48 27320.2 27303.8   16.46
 1999 151    77    7141    9221  198061     763  197298  196994   304.1  344.20  1132.2 27370.4   50.89 27319.5 27303.4   16.06
 1999 152    78    7141    9221  198053     759  197294  196991   302.1  344.20  1132.1 27369.3   50.41 27318.9 27303.2   15.73
 1999 153    79    7141    9220  198045     756  197290  196989   300.6  344.20  1132.0 27368.4   50.03 27318.4 27302.9   15.45
 1999 154    80    7141    9219  198039     753  197286  196987   299.5  344.20  1131.9 27367.6   49.73 27317.9 27302.7   15.22
 1999 155    81    7141    9219  198031     749  197282  196985   297.8  344.20  1131.8 27366.5   49.17 27317.3 27302.4   14.93
 1999 156    82    7141    9218  198024     744  197280  196983   296.7  344.20  1131.8 27365.5   48.61 27316.9 27302.2   14.69
 1999 157    83    7141    9218  198017     740  197277  196981   295.9  344.20  1131.7 27364.7   48.15 27316.5 27302.0   14.48
 1999 158    84    7141    9218  198011     737  197274  196980   294.1  344.20  1131.7 27363.9   47.77 27316.1 27301.8   14.28
 1999 159    85    7141    9217  198006     734  197272  196978   293.8  344.20  1131.6 27363.3   47.46 27315.8 27301.7   14.15
 1999 160    86    7141    9217  198001     732  197270  196977   292.5  344.20  1131.6 27362.7   47.21 27315.5 27301.5   14.00
 1999 161    87    7141    9217  197997     730  197267  196976   291.4  344.20  1131.6 27362.3   47.02 27315.2 27301.4   13.88
 1999 162    88    7141    9217  197994     729  197265  196974   290.5  344.20  1131.5 27361.9   46.87 27315.0 27301.2   13.78
 1999 163    89    7141    9217  197992     728  197264  196973   291.1  344.20  1131.5 27361.6   46.76 27314.8 27301.1   13.74
 1999 164    90    7141    9216  197990     727  197263  196972   290.5  344.20  1131.5 27361.3   46.69 27314.7 27301.0   13.68
 1999 165    91    7141    9216  197989     727  197262  196971   291.4  344.20  1131.5 27361.2   46.66 27314.5 27300.9   13.67
 1999 166    92    7141    9216  197988     727  197261  196970   291.0  344.20  1131.5 27361.0   46.63 27314.4 27300.8   13.63
 1999 167    93    7141    9216  197988     726  197261  196969   292.0  344.20  1131.5 27360.9   46.60 27314.3 27300.7   13.64
 1999 168    94    7141    9216  197988     726  197262  196968   293.1  344.20  1131.4 27360.8   46.56 27314.2 27300.6   13.65
 1999 169    95    7141    9216  197986     726  197261  196968   292.8  344.20  1131.4 27360.6   46.53 27314.1 27300.5   13.63
 1999 170    96    7141    9216  197985     726  197260  196967   292.6  344.20  1131.4 27360.5   46.50 27314.0 27300.4   13.61
 1999 171    97    7141    9216  197984     725  197259  196966   292.4  344.20  1131.4 27360.4   46.47 27313.9 27300.3   13.59
 1999 172    98    7141    9216  197983     725  197258  196966   292.1  344.20  1131.4 27360.2   46.43 27313.8 27300.2   13.56
 1999 173    99    7141    9216  197981     725  197257  196965   291.9  344.20  1131.4 27360.1   46.40 27313.7 27300.2   13.54
 1999 174   100    7141    9216  197980     724  197256  196964   291.7  344.20  1131.4 27360.0   46.37 27313.6 27300.1   13.52
 1999 175   101    7141    9216  197979     724  197255  196964   291.5  344.20  1131.4 27359.8   46.34 27313.5 27300.0   13.50
 1999 176   102    7141    9216  197978     724  197254  196963   291.3  344.20  1131.4 27359.7   46.31 27313.4 27299.9   13.48
 1999 177   103    7141    9216  197979     724  197255  196963   292.4  344.20  1131.4 27359.7   46.29 27313.4 27299.9   13.50
 1999 178   104    7141    9216  197978     723  197254  196962   292.2  344.20  1131.4 27359.6   46.26 27313.3 27299.8   13.49
 1999 179   105    7141    9216  197977     723  197254  196962   292.1  344.20  1131.4 27359.5   46.24 27313.2 27299.7   13.47
 1999 180   106    7141    9216  197977     723  197254  196961   293.2  344.20  1131.4 27359.4   46.21 27313.2 27299.7   13.49
 1999 181   107    7141    9216  197978     723  197255  196961   294.3  344.20  1131.4 27359.3   46.19 27313.1 27299.6   13.51
 1999 182   108    7141    9216  197978     723  197255  196960   295.4  344.20  1131.4 27359.2   46.16 27313.1 27299.6   13.52
 1999 183   109    7141    9215  197977     722  197255  196960   295.2  344.20  1131.4 27359.1   46.13 27313.0 27299.5   13.51
 1999 184   110    7141    9215  197976     722  197254  196959   295.0  344.20  1131.4 27359.0   46.10 27312.9 27299.4   13.49
 1999 185   111    7141    9215  197975     722  197253  196958   294.8  344.20  1131.4 27358.9   46.07 27312.8 27299.4   13.47
 1999 186   112    7141    9215  197974     722  197253  196958   294.6  344.20  1131.3 27358.8   46.04 27312.7 27299.3   13.45
 1999 187   113    7141    9215  197973     721  197252  196957   294.4  344.20  1131.3 27358.7   46.02 27312.7 27299.2   13.43
 1999 188   114    7141    9215  197972     721  197251  196957   294.2  344.20  1131.3 27358.6   45.99 27312.6 27299.2   13.41
 1999 189   115    7141    9215  197971     721  197251  196957   294.0  344.20  1131.3 27358.5   45.96 27312.5 27299.1   13.40
 1999 190   116    7141    9215  197971     721  197250  196956   293.9  344.20  1131.3 27358.4   45.93 27312.4 27299.1   13.38
 1999 191   117    7141    9215  197970     720  197249  196956   293.7  344.20  1131.3 27358.3   45.91 27312.4 27299.0   13.36
 1999 192   118    7141    9215  197969     720  197249  196955   293.5  344.20  1131.3 27358.2   45.88 27312.3 27298.9   13.34
 1999 193   119    7141    9215  197969     720  197249  196955   294.5  344.20  1131.3 27358.1   45.85 27312.2 27298.9   13.36
 1999 194   120    7141    9215  197968     720  197249  196954   294.4  344.20  1131.3 27358.0   45.82 27312.2 27298.8   13.34
 1999 195   121    7141    9215  197967     719  197248  196954   294.2  344.20  1131.3 27357.9   45.79 27312.1 27298.8   13.32
 1999 196   122    7141    9215  197966     719  197247  196953   294.0  344.20  1131.3 27357.8   45.76 27312.0 27298.7   13.30
 1999 197   123    7141    9215  197965     719  197247  196953   293.8  344.20  1131.3 27357.7   45.73 27311.9 27298.6   13.28
 1999 198   124    7141    9215  197964     719  197246  196952   293.6  344.20  1131.3 27357.5   45.70 27311.8 27298.6   13.26
 1999 199   125    7141    9215  197964     718  197245  196952   293.4  344.20  1131.3 27357.4   45.67 27311.8 27298.5   13.24
 1999 200   126    7141    9215  197963     718  197245  196951   293.2  344.20  1131.3 27357.3   45.63 27311.7 27298.5   13.22
 1999 201   127    7141    9215  197962     718  197244  196951   293.0  344.20  1131.3 27357.2   45.60 27311.6 27298.4   13.20
 1999 202   128    7141    9215  197961     718  197243  196950   292.8  344.20  1131.3 27357.1   45.57 27311.5 27298.3   13.19
 1999 203   129    7141    9215  197960     717  197243  196950   292.6  344.20  1131.2 27357.0   45.54 27311.5 27298.3   13.17
 1999 204   130    7141    9215  197959     717  197242  196950   292.5  344.20  1131.2 27356.9   45.52 27311.4 27298.2   13.15
 1999 205   131    7141    9215  197960     717  197243  196949   293.5  344.20  1131.2 27356.9   45.49 27311.4 27298.2   13.17
 1999 206   132    7141    9215  197960     717  197243  196949   294.5  344.20  1131.2 27356.8   45.47 27311.3 27298.1   13.19
 1999 207   133    7141    9215  197960     716  197244  196948   295.5  344.20  1131.2 27356.7   45.45 27311.3 27298.1   13.20
 1999 208   134    7141    9215  197961     716  197245  196948   296.5  344.20  1131.2 27356.7   45.43 27311.3 27298.0   13.22
 1999 209   135    7141    9214  197961     716  197245  196948   297.4  344.20  1131.2 27356.6   45.40 27311.2 27298.0   13.23
 1999 210   136    7141    9214  197962     716  197246  196947   298.4  344.20  1131.2 27356.6   45.38 27311.2 27298.0   13.25
 1999 211   137    7141    9214  197962     716  197246  196947   299.4  344.20  1131.2 27356.5   45.36 27311.2 27297.9   13.26
 1999 212   138    7141    9214  197962     715  197247  196947   300.3  344.20  1131.2 27356.5   45.33 27311.1 27297.9   13.28
 1999 213   139    7141    9214  197963     715  197247  196946   301.2  344.20  1131.2 27356.4   45.31 27311.1 27297.8   13.29
 1999 214   140    7141    9214  197963     715  197248  196946   302.2  344.20  1131.2 27356.3   45.28 27311.1 27297.8   13.31
 1999 215   141    7141    9214  197963     715  197249  196945   303.1  344.20  1131.2 27356.3   45.26 27311.0 27297.7   13.32
 1999 216   142    7141    9214  197964     715  197249  196945   304.0  344.20  1131.2 27356.2   45.23 27311.0 27297.7   13.33
 1999 217   143    7141    9214  197964     714  197250  196945   304.9  344.20  1131.2 27356.2   45.21 27311.0 27297.6   13.34
 1999 218   144    7141    9214  197963     714  197249  196944   304.7  344.20  1131.2 27356.1   45.18 27310.9 27297.6   13.33
 1999 219   145    7141    9214  197962     714  197248  196944   304.5  344.20  1131.2 27356.0   45.15 27310.8 27297.5   13.31
 1999 220   146    7141    9214  197962     714  197248  196944   304.3  344.20  1131.2 27355.9   45.12 27310.8 27297.5   13.29

*DSSAT Cropping System Model Ver. 4.5.1.023 -Stub         AUG 09, 2014; 00:37:49
                                                                                
*RUN   2        : MACH0002_1                MZCER045 MACH0002    1              
 MODEL          : MZCER045 - Maize                                              
 EXPERIMENT     : MACH0002 MZ                                                   
 DATA PATH      :                                                               
 TREATMENT  1   : MACH0002_1                MZCER045                            
  
@YEAR DOY   DAS    OMAC    SCDD    SOCD    SC0D    SCTD   SOMCT    LCTD    ONAC    SNDD    SOND    SN0D    SNTD   SOMNT    LNTD
 1999 254     0       0    9100  197147     200  196947  196947     0.0    0.00  1113.5 27292.5    4.40 27288.1 27288.1    0.00
 1999 255     1       0    9099  197139     197  196942  196942     0.0    0.00  1113.4 27291.9    4.41 27287.5 27287.5    0.00
 1999 256     2       0    9097  197131     195  196936  196936     0.0    0.00  1113.3 27291.3    4.42 27286.9 27286.9    0.00
 1999 257     3       0    9096  197124     192  196931  196931     0.0    0.00  1113.1 27290.8    4.42 27286.3 27286.3    0.00
 1999 258     4       0    9095  197118     191  196927  196927     0.0    0.00  1113.0 27290.3    4.42 27285.8 27285.8    0.00
 1999 259     5       0    9094  197112     190  196923  196923     0.0    0.00  1112.9 27289.8    4.42 27285.4 27285.4    0.00
 1999 260     6       0    9093  197107     189  196919  196919     0.0    0.00  1112.9 27289.3    4.42 27284.9 27284.9    0.00
 1999 261     7       0    9093  197103     188  196915  196915     0.0    0.00  1112.8 27288.9    4.42 27284.5 27284.5    0.00
 1999 262     8       0    9092  197098     187  196911  196911     0.0    0.00  1112.7 27288.5    4.42 27284.1 27284.1    0.00
 1999 263     9       0    9091  197094     187  196907  196907     0.0    0.00  1112.6 27288.1    4.42 27283.7 27283.7    0.00
 1999 264    10       0    9090  197090     187  196904  196904     0.0    0.00  1112.5 27287.7    4.42 27283.3 27283.3    0.00
 1999 265    11       0    9090  197087     186  196900  196900     0.0    0.00  1112.5 27287.3    4.42 27282.9 27282.9    0.00
 1999 266    12       0    9089  197083     186  196897  196897     0.0    0.00  1112.4 27286.9    4.42 27282.5 27282.5    0.00
 1999 267    13       0    9088  197079     186  196893  196893     0.0    0.00  1112.3 27286.5    4.42 27282.1 27282.1    0.00
 1999 268    14       0    9087  197076     186  196890  196890     0.0    0.00  1112.3 27286.1    4.42 27281.7 27281.7    0.00
 1999 269    15       0    9087  197072     186  196886  196886     0.0    0.00  1112.2 27285.7    4.42 27281.3 27281.3    0.00
 1999 270    16       0    9086  197069     186  196883  196883     0.0    0.00  1112.1 27285.3    4.42 27280.9 27280.9    0.00
 1999 271    17       0    9085  197065     186  196879  196879     0.0    0.00  1112.1 27284.9    4.42 27280.5 27280.5    0.00
 1999 272    18       0    9085  197061     186  196876  196876     0.0    0.00  1112.0 27284.6    4.42 27280.1 27280.1    0.00
 1999 273    19       0    9084  197058     186  196872  196872     0.0    0.00  1112.0 27284.2    4.42 27279.7 27279.7    0.00
 1999 274    20       0    9083  197054     185  196869  196869     0.0    0.00  1111.9 27283.8    4.42 27279.4 27279.4    0.00
 1999 275    21       0    9083  197051     185  196865  196865     0.0    0.00  1111.8 27283.4    4.42 27279.0 27279.0    0.00
 1999 276    22       0    9082  197047     185  196862  196862     0.0    0.00  1111.8 27283.1    4.42 27278.6 27278.6    0.00
 1999 277    23       0    9082  197044     185  196859  196859     0.0    0.00  1111.7 27282.7    4.42 27278.3 27278.3    0.00
 1999 278    24     751    9081  197340     335  197005  196856   148.6   36.20  1111.7 27318.3   22.50 27295.8 27278.0   17.89
 1999 279    25     751    9080  197336     335  197001  196853   147.2   36.20  1111.5 27317.8   22.48 27295.3 27277.6   17.70
 1999 280    26     751    9080  197332     335  196997  196851   145.9   36.20  1111.5 27317.3   22.46 27294.9 27277.4   17.51
 1999 281    27     751    9080  197328     335  196994  196849   144.7   36.20  1111.5 27316.9   22.44 27294.4 27277.1   17.34
 1999 282    28     751    9080  197324     334  196990  196847   143.6   36.20  1111.5 27316.4   22.42 27294.0 27276.8   17.18
 1999 283    29     751    9080  197321     334  196987  196844   142.6   36.20  1111.4 27316.0   22.41 27293.6 27276.6   17.04
 1999 284    30     751    9080  197318     334  196984  196842   141.6   36.20  1111.4 27315.6   22.39 27293.2 27276.3   16.90
 1999 285    31     751    9080  197314     334  196981  196840   140.6   36.20  1111.4 27315.2   22.37 27292.8 27276.0   16.76
 1999 286    32     751    9080  197311     334  196978  196838   139.7   36.20  1111.4 27314.8   22.35 27292.4 27275.8   16.63
 1999 287    33     751    9079  197308     333  196974  196836   138.8   36.20  1111.4 27314.3   22.33 27292.0 27275.5   16.50
 1999 288    34     751    9079  197304     333  196971  196833   137.8   36.20  1111.4 27313.9   22.31 27291.6 27275.3   16.37
 1999 289    35     751    9079  197301     333  196968  196831   136.9   36.20  1111.4 27313.5   22.29 27291.2 27275.0   16.24
 1999 290    36     751    9079  197298     333  196965  196829   136.1   36.20  1111.4 27313.1   22.27 27290.8 27274.7   16.12
 1999 291    37     751    9079  197294     333  196962  196826   135.3   36.20  1111.4 27312.7   22.25 27290.4 27274.4   16.01
 1999 292    38     751    9079  197291     332  196959  196824   134.5   36.20  1111.4 27312.3   22.23 27290.1 27274.2   15.89
 1999 293    39     751    9079  197288     332  196956  196822   133.7   36.20  1111.3 27311.9   22.21 27289.7 27273.9   15.79
 1999 294    40     751    9079  197285     332  196953  196820   133.0   36.20  1111.3 27311.5   22.19 27289.3 27273.6   15.68
 1999 295    41     751    9079  197281     332  196949  196817   132.3   36.20  1111.3 27311.1   22.17 27288.9 27273.4   15.58
 1999 296    42     751    9079  197278     332  196946  196815   131.6   36.20  1111.3 27310.7   22.15 27288.6 27273.1   15.48
 1999 297    43     751    9079  197274     331  196943  196812   130.9   36.20  1111.3 27310.3   22.13 27288.2 27272.8   15.38
 1999 298    44     751    9079  197271     331  196940  196810   130.2   36.20  1111.3 27309.9   22.11 27287.8 27272.5   15.29
 1999 299    45     751    9079  197267     331  196937  196807   129.5   36.20  1111.3 27309.5   22.08 27287.4 27272.2   15.19
 1999 300    46     751    9078  197254     324  196930  196804   126.0   36.20  1111.2 27307.9   21.40 27286.5 27271.8   14.70
 1999 301    47     751    9078  197240     317  196923  196801   122.7   36.20  1111.2 27306.4   20.71 27285.6 27271.4   14.24
 1999 302    48     751    9078  197229     311  196918  196798   120.2   36.20  1111.2 27305.1   20.16 27285.0 27271.1   13.89
 1999 303    49     751    9078  197219     306  196913  196795   118.1   36.20  1111.2 27304.1   19.69 27284.4 27270.8   13.59
 1999 304    50     751    9078  197211     302  196909  196793   116.3   36.20  1111.2 27303.1   19.31 27283.8 27270.5   13.35
 1999 305    51     751    9078  197203     298  196905  196790   114.8   36.20  1111.2 27302.3   18.99 27283.3 27270.2   13.14
 1999 306    52     751    9078  197197     295  196901  196788   113.5   36.20  1111.1 27301.6   18.72 27282.9 27269.9   12.95
 1999 307    53     751    9077  197191     293  196898  196785   112.4   36.20  1111.1 27300.9   18.49 27282.4 27269.6   12.79
 1999 308    54     751    9077  197185     291  196895  196783   111.4   36.20  1111.1 27300.3   18.30 27282.0 27269.4   12.66
 1999 309    55     751    9077  197174     287  196887  196779   107.8   36.20  1111.1 27299.0   17.96 27281.1 27268.9   12.15
 1999 310    56     751    9076  197161     283  196878  196774   103.7   36.20  1111.0 27297.5   17.55 27280.0 27268.4   11.58
 1999 311    57     751    9076  197149     279  196870  196770   100.4   36.20  1111.0 27296.3   17.20 27279.1 27268.0   11.11
 1999 312    58     751    9075  197138     275  196862  196765    96.9   36.20  1110.9 27295.0   16.84 27278.1 27267.5   10.62
 1999 313    59     751    9075  197126     272  196854  196761    93.5   36.20  1110.9 27293.7   16.48 27277.2 27267.0   10.13
 1999 314    60     751    9074  197114     268  196846  196756    90.0   36.20  1110.8 27292.3   16.11 27276.2 27266.6    9.65
 1999 315    61     751    9073  197103     264  196839  196752    86.7   36.20  1110.7 27291.1   15.76 27275.3 27266.1    9.19
 1999 316    62     751    9073  197093     261  196832  196748    84.2   36.20  1110.6 27290.0   15.51 27274.5 27265.7    8.82
 1999 317    63     751    9072  197083     258  196825  196743    81.4   36.20  1110.6 27288.9   15.23 27273.6 27265.2    8.44
 1999 318    64     751    9071  197072     255  196817  196738    78.7   36.20  1110.5 27287.7   14.93 27272.7 27264.7    8.05
 1999 319    65     751    9071  197064     252  196811  196734    76.9   36.20  1110.4 27286.8   14.70 27272.1 27264.3    7.79
 1999 320    66     751    9070  197056     250  196806  196731    75.2   36.20  1110.4 27285.9   14.50 27271.4 27263.9    7.55
 1999 321    67     751    9069  197048     248  196800  196727    73.5   36.20  1110.3 27285.1   14.29 27270.8 27263.5    7.30
 1999 322    68     751    9069  197040     246  196795  196723    72.0   36.20  1110.3 27284.2   14.09 27270.1 27263.0    7.08
 1999 323    69     751    9068  197033     243  196790  196719    70.6   36.20  1110.2 27283.4   13.91 27269.5 27262.6    6.87
 1999 324    70     751    9068  197026     241  196785  196715    69.3   36.20  1110.1 27282.6   13.73 27268.9 27262.2    6.68
 1999 325    71     751    9067  197019     239  196780  196711    68.1   36.20  1110.1 27281.8   13.55 27268.3 27261.8    6.48
 1999 326    72     751    9066  197011     237  196774  196707    66.8   36.20  1110.0 27281.0   13.36 27267.6 27261.3    6.27
 1999 327    73     751    9065  197004     235  196769  196703    65.6   36.20  1109.9 27280.2   13.19 27267.0 27260.9    6.07
 1999 328    74     751    9065  196997     233  196764  196699    64.6   36.20  1109.9 27279.4   13.03 27266.4 27260.5    5.90
 1999 329    75     751    9064  196991     232  196759  196696    63.7   36.20  1109.8 27278.7   12.87 27265.8 27260.1    5.73
 1999 330    76     751    9063  196985     230  196755  196692    63.0   36.20  1109.7 27278.0   12.72 27265.2 27259.7    5.59
 1999 331    77     751    9063  196979     228  196750  196688    62.3   36.20  1109.7 27277.3   12.57 27264.7 27259.2    5.45
 1999 332    78     751    9062  196972     226  196746  196684    61.7   36.20  1109.6 27276.6   12.42 27264.2 27258.8    5.31
 1999 333    79     751    9062  196967     225  196742  196681    61.1   36.20  1109.5 27275.9   12.27 27263.6 27258.4    5.17
 1999 334    80     751    9061  196961     223  196738  196677    60.5   36.20  1109.5 27275.2   12.12 27263.1 27258.0    5.04
 1999 335    81     751    9060  196953     221  196732  196673    59.7   36.20  1109.4 27274.4   11.95 27262.4 27257.6    4.88
 1999 336    82     751    9059  196946     219  196727  196668    58.9   36.20  1109.3 27273.5   11.77 27261.8 27257.1    4.71
 1999 337    83     751    9058  196939     217  196722  196664    58.3   36.20  1109.2 27272.8   11.62 27261.2 27256.6    4.57
 1999 338    84     751    9057  196932     215  196716  196659    57.6   36.20  1109.1 27271.9   11.46 27260.5 27256.0    4.41
 1999 339    85     751    9056  196923     213  196710  196653    56.8   36.20  1109.0 27271.0   11.28 27259.7 27255.5    4.25
 1999 340    86     751    9055  196915     211  196704  196648    56.2   36.20  1108.9 27270.0   11.09 27258.9 27254.9    4.08
 1999 341    87     751    9054  196907     209  196698  196643    55.7   36.20  1108.8 27269.2   10.94 27258.2 27254.3    3.95
 1999 342    88     751    9053  196900     207  196693  196637    55.5   36.20  1108.7 27268.3   10.81 27257.5 27253.7    3.84
 1999 343    89     751    9052  196893     206  196688  196632    55.3   36.20  1108.7 27267.6   10.68 27256.9 27253.2    3.73
 1999 344    90     751    9052  196887     204  196683  196627    55.2   36.20  1108.6 27266.8   10.54 27256.2 27252.6    3.63
 1999 345    91     751    9051  196879     202  196677  196622    55.0   36.20  1108.5 27265.9   10.39 27255.6 27252.0    3.51
 1999 346    92     751    9049  196872     200  196672  196617    54.9   36.20  1108.4 27265.1   10.23 27254.9 27251.5    3.40
 1999 347    93     751    9048  196864     198  196666  196611    54.8   36.20  1108.3 27264.3   10.08 27254.2 27250.9    3.30
 1999 348    94     751    9047  196856     196  196660  196606    54.7   36.20  1108.2 27263.4    9.91 27253.4 27250.3    3.18
 1999 349    95     751    9046  196848     194  196654  196600    54.7   36.20  1108.1 27262.4    9.74 27252.7 27249.6    3.07
 1999 350    96     751    9045  196841     192  196649  196594    54.8   36.20  1107.9 27261.5    9.57 27252.0 27249.0    2.97
 1999 351    97     751    9044  196833     190  196643  196588    55.0   36.20  1107.8 27260.7    9.42 27251.3 27248.4    2.89
 1999 352    98     751    9043  196827     188  196639  196583    55.3   36.20  1107.7 27260.0    9.30 27250.7 27247.8    2.82
 1999 353    99     751    9042  196821     187  196634  196579    55.8   36.20  1107.7 27259.3    9.20 27250.1 27247.3    2.77
 1999 354   100     751    9041  196815     185  196630  196573    56.0   36.20  1107.6 27258.5    9.08 27249.5 27246.8    2.69
 1999 355   101     751    9040  196809     184  196625  196568    56.4   36.20  1107.5 27257.8    8.96 27248.9 27246.2    2.64
 1999 356   102     751    9039  196802     183  196619  196564    55.3   36.20  1107.4 27257.1    8.87 27248.3 27245.7    2.56
 1999 357   103     751    9038  196796     181  196615  196559    55.8   36.20  1107.3 27256.5    8.77 27247.7 27245.2    2.52
 1999 358   104     751    9037  196789     180  196609  196555    54.8   36.20  1107.2 27255.8    8.67 27247.2 27244.7    2.43
 1999 359   105     751    9036  196782     179  196604  196550    53.7   36.20  1107.1 27255.2    8.56 27246.6 27244.3    2.35
 1999 360   106     751    9035  196775     177  196598  196545    52.6   36.20  1107.0 27254.4    8.45 27246.0 27243.7    2.26
 1999 361   107     751    9034  196767     176  196592  196540    51.5   36.20  1106.9 27253.7    8.33 27245.4 27243.2    2.17
 1999 362   108     751    9033  196759     174  196585  196535    50.4   36.20  1106.8 27253.0    8.22 27244.8 27242.7    2.09
 1999 363   109     751    9032  196752     173  196579  196530    49.4   36.20  1106.7 27252.3    8.12 27244.2 27242.1    2.01
 1999 364   110     751    9030  196746     171  196575  196525    50.0   36.20  1106.7 27251.6    8.03 27243.6 27241.6    1.98
 1999 365   111     751    9029  196740     170  196570  196519    50.6   36.20  1106.5 27250.9    7.93 27243.0 27241.1    1.95
 2000 001   112     751    9028  196734     169  196565  196514    51.1   36.20  1106.4 27250.2    7.82 27242.4 27240.5    1.91
 2000 002   113     751    9027  196727     167  196560  196508    51.7   36.20  1106.3 27249.5    7.70 27241.8 27239.9    1.88
 2000 003   114     751    9026  196721     165  196556  196503    52.4   36.20  1106.2 27248.8    7.58 27241.2 27239.4    1.85
 2000 004   115     751    9025  196715     164  196551  196498    53.1   36.20  1106.1 27248.1    7.47 27240.7 27238.8    1.83
 2000 005   116     751    9024  196710     162  196548  196494    54.0   36.20  1106.1 27247.5    7.38 27240.2 27238.3    1.82
 2000 006   117     751    9023  196706     162  196545  196490    54.9   36.20  1106.0 27247.0    7.31 27239.7 27237.9    1.82
 2000 007   118     751    9022  196702     161  196542  196486    56.0   36.20  1105.9 27246.5    7.26 27239.3 27237.4    1.83
 2000 008   119     751    9022  196699     160  196539  196482    57.2   36.20  1105.9 27246.1    7.21 27238.9 27237.0    1.84
 2000 009   120     751    9021  196696     159  196537  196478    58.4   36.20  1105.8 27245.6    7.17 27238.5 27236.6    1.85
 2000 010   121     751    9020  196693     159  196534  196475    59.7   36.20  1105.8 27245.2    7.14 27238.1 27236.2    1.87
 2000 011   122     751    9020  196691     159  196533  196471    61.1   36.20  1105.7 27244.9    7.11 27237.8 27235.9    1.89
 2000 012   123     751    9019  196689     158  196531  196468    62.6   36.20  1105.7 27244.5    7.09 27237.4 27235.5    1.91
 2000 013   124     751    9019  196688     158  196529  196465    64.1   36.20  1105.6 27244.2    7.08 27237.1 27235.2    1.94
 2000 014   125     751    9019  196686     158  196528  196462    65.7   36.20  1105.6 27243.9    7.07 27236.8 27234.8    1.96
 2000 015   126     751    9018  196685     158  196527  196460    67.3   36.20  1105.6 27243.6    7.07 27236.5 27234.5    1.99
 2000 016   127     751    9018  196684     158  196526  196457    69.0   36.20  1105.6 27243.3    7.06 27236.2 27234.2    2.02
 2000 017   128     751    9018  196683     158  196525  196455    70.7   36.20  1105.5 27243.1    7.06 27236.0 27233.9    2.05
 2000 018   129     751    9017  196682     158  196525  196452    72.5   36.20  1105.5 27242.8    7.06 27235.7 27233.7    2.09
 2000 019   130     751    9017  196682     158  196524  196450    74.3   36.20  1105.5 27242.6    7.05 27235.5 27233.4    2.12
 2000 020   131     751    9017  196682     158  196524  196448    76.2   36.20  1105.5 27242.3    7.05 27235.3 27233.1    2.16
 2000 021   132     751    9017  196681     158  196524  196446    78.1   36.20  1105.4 27242.1    7.04 27235.1 27232.9    2.20
 2000 022   133     751    9016  196681     158  196524  196444    80.0   36.20  1105.4 27241.9    7.04 27234.9 27232.6    2.23
 2000 023   134     751    9016  196681     157  196524  196442    81.9   36.20  1105.4 27241.7    7.04 27234.7 27232.4    2.27
 2000 024   135     751    9016  196680     157  196523  196440    83.6   36.20  1105.4 27241.5    7.00 27234.5 27232.2    2.30
 2000 025   136     751    9016  196679     156  196523  196438    85.3   36.20  1105.4 27241.2    6.93 27234.2 27231.9    2.32
 2000 026   137     751    9016  196678     155  196523  196436    87.1   36.20  1105.4 27240.9    6.86 27234.1 27231.7    2.36
 2000 027   138     751    9015  196677     154  196523  196434    89.0   36.20  1105.3 27240.7    6.80 27233.9 27231.5    2.39
 2000 028   139     751    9015  196677     153  196524  196433    90.9   36.20  1105.3 27240.5    6.76 27233.7 27231.3    2.43
 2000 029   140     751    9015  196677     153  196524  196432    92.8   36.20  1105.3 27240.3    6.72 27233.6 27231.1    2.47
 2000 030   141     751    9015  196678     153  196525  196430    94.8   36.20  1105.3 27240.2    6.69 27233.5 27231.0    2.51
 2000 031   142     751    9015  196678     152  196526  196429    96.7   36.20  1105.3 27240.0    6.67 27233.3 27230.8    2.55
 2000 032   143     751    9015  196678     152  196527  196428    98.7   36.20  1105.3 27239.9    6.65 27233.2 27230.6    2.60
 2000 033   144     751    9015  196679     152  196527  196427   100.7   36.20  1105.3 27239.8    6.64 27233.1 27230.5    2.64
 2000 034   145     751    9015  196680     152  196528  196426   102.8   36.20  1105.3 27239.7    6.63 27233.0 27230.3    2.69
 2000 035   146     751    9015  196681     151  196530  196425   104.8   36.20  1105.3 27239.6    6.63 27232.9 27230.2    2.73
 2000 036   147     751    9015  196682     151  196531  196424   106.8   36.20  1105.3 27239.5    6.62 27232.9 27230.1    2.78
 2000 037   148     751    9015  196681     151  196529  196423   106.2   36.20  1105.3 27239.3    6.62 27232.7 27230.0    2.76
 2000 038   149     751    9015  196679     151  196528  196422   105.7   36.20  1105.3 27239.2    6.61 27232.6 27229.8    2.74

*DSSAT Cropping System Model Ver. 4.5.1.023 -Stub         AUG 09, 2014; 00:37:49
                                                                                
*RUN   3        : MACH0003_1                MZCER045 MACH0003    1              
 MODEL          : MZCER045 - Maize                                              
 EXPERIMENT     : MACH0003 MZ                                                   
 DATA PATH      :                                                               
 TREATMENT  1   : MACH0003_1                MZCER045                            
  
@YEAR DOY   DAS    OMAC    SCDD    SOCD    SC0D    SCTD   SOMCT    LCTD    ONAC    SNDD    SOND    SN0D    SNTD   SOMNT    LNTD
 1999 014     0       0    5688  185447     200  185247  185247     0.0    0.00   700.6 25844.8    4.40 25840.4 25840.4    0.00
 1999 015     1       0    5687  185441     197  185244  185244     0.0    0.00   700.5 25844.5    4.41 25840.1 25840.1    0.00
 1999 016     2       0    5686  185436     195  185241  185241     0.0    0.00   700.5 25844.1    4.41 25839.7 25839.7    0.00
 1999 017     3       0    5686  185431     194  185238  185238     0.0    0.00   700.4 25843.8    4.42 25839.3 25839.3    0.00
 1999 018     4       0    5685  185427     192  185235  185235     0.0    0.00   700.4 25843.4    4.42 25839.0 25839.0    0.00
 1999 019     5       0    5685  185423     191  185232  185232     0.0    0.00   700.3 25843.1    4.42 25838.7 25838.7    0.00
 1999 020     6       0    5684  185419     190  185229  185229     0.0    0.00   700.3 25842.7    4.42 25838.3 25838.3    0.00
 1999 021     7       0    5684  185414     188  185226  185226     0.0    0.00   700.2 25842.4    4.43 25837.9 25837.9    0.00
 1999 022     8       0    5683  185409     186  185222  185222     0.0    0.00   700.2 25842.0    4.43 25837.6 25837.6    0.00
 1999 023     9       0    5682  185403     184  185219  185219     0.0    0.00   700.1 25841.6    4.43 25837.2 25837.2    0.00
 1999 024    10       0    5682  185398     182  185216  185216     0.0    0.00   700.0 25841.2    4.43 25836.8 25836.8    0.00
 1999 025    11       0    5681  185393     180  185213  185213     0.0    0.00   700.0 25840.9    4.43 25836.4 25836.4    0.00
 1999 026    12       0    5681  185389     179  185210  185210     0.0    0.00   699.9 25840.5    4.42 25836.1 25836.1    0.00
 1999 027    13       0    5680  185385     178  185207  185207     0.0    0.00   699.9 25840.2    4.42 25835.8 25835.8    0.00
 1999 028    14       0    5680  185381     177  185204  185204     0.0    0.00   699.9 25839.8    4.42 25835.4 25835.4    0.00
 1999 029    15       0    5680  185378     176  185201  185201     0.0    0.00   699.8 25839.5    4.42 25835.1 25835.1    0.00
 1999 030    16       0    5679  185374     176  185199  185199     0.0    0.00   699.8 25839.2    4.42 25834.8 25834.8    0.00
 1999 031    17       0    5679  185371     175  185196  185196     0.0    0.00   699.7 25838.9    4.41 25834.4 25834.4    0.00
 1999 032    18       0    5678  185369     175  185193  185193     0.0    0.00   699.7 25838.5    4.41 25834.1 25834.1    0.00
 1999 033    19       0    5678  185366     175  185191  185191     0.0    0.00   699.7 25838.2    4.41 25833.8 25833.8    0.00
 1999 034    20       0    5678  185363     175  185188  185188     0.0    0.00   699.6 25837.9    4.41 25833.5 25833.5    0.00
 1999 035    21       0    5677  185360     175  185185  185185     0.0    0.00   699.6 25837.6    4.41 25833.2 25833.2    0.00
 1999 036    22       0    5677  185358     175  185183  185183     0.0    0.00   699.6 25837.3    4.41 25832.9 25832.9    0.00
 1999 037    23       0    5677  185355     175  185180  185180     0.0    0.00   699.5 25837.0    4.41 25832.6 25832.6    0.00
 1999 038    24       0    5676  185352     175  185178  185178     0.0    0.00   699.5 25836.7    4.41 25832.3 25832.3    0.00
 1999 039    25       0    5676  185350     175  185175  185175     0.0    0.00   699.5 25836.4    4.41 25832.0 25832.0    0.00
 1999 040    26       0    5676  185347     174  185173  185173     0.0    0.00   699.4 25836.1    4.41 25831.7 25831.7    0.00
 1999 041    27       0    5675  185344     174  185170  185170     0.0    0.00   699.4 25835.8    4.41 25831.4 25831.4    0.00
 1999 042    28       0    5675  185341     174  185167  185167     0.0    0.00   699.4 25835.5    4.41 25831.1 25831.1    0.00
 1999 043    29       0    5675  185339     174  185164  185164     0.0    0.00   699.4 25835.2    4.41 25830.7 25830.7    0.00
 1999 044    30       0    5675  185336     174  185162  185162     0.0    0.00   699.3 25834.8    4.41 25830.4 25830.4    0.00
 1999 045    31       0    5674  185333     174  185159  185159     0.0    0.00   699.3 25834.5    4.41 25830.1 25830.1    0.00
 1999 046    32       0    5674  185330     174  185156  185156     0.0    0.00   699.3 25834.2    4.41 25829.8 25829.8    0.00
 1999 047    33       0    5674  185327     174  185154  185154     0.0    0.00   699.2 25833.9    4.41 25829.5 25829.5    0.00
 1999 048    34       0    5673  185325     174  185151  185151     0.0    0.00   699.2 25833.6    4.41 25829.2 25829.2    0.00
 1999 049    35       0    5673  185322     173  185149  185149     0.0    0.00   699.2 25833.3    4.41 25828.9 25828.9    0.00
 1999 050    36       0    5673  185320     173  185147  185147     0.0    0.00   699.2 25833.1    4.41 25828.7 25828.7    0.00
 1999 051    37       0    5673  185318     173  185144  185144     0.0    0.00   699.2 25832.8    4.41 25828.4 25828.4    0.00
 1999 052    38       0    5673  185315     173  185142  185142     0.0    0.00   699.2 25832.5    4.41 25828.1 25828.1    0.00
 1999 053    39       0    5673  185313     173  185140  185140     0.0    0.00   699.1 25832.3    4.41 25827.9 25827.9    0.00
 1999 054    40       0    5672  185311     173  185138  185138     0.0    0.00   699.1 25832.0    4.41 25827.6 25827.6    0.00
 1999 055    41       0    5672  185308     173  185136  185136     0.0    0.00   699.1 25831.7    4.41 25827.3 25827.3    0.00
 1999 056    42       0    5672  185306     173  185133  185133     0.0    0.00   699.1 25831.5    4.41 25827.1 25827.1    0.00
 1999 057    43       0    5672  185303     173  185131  185131     0.0    0.00   699.1 25831.2    4.40 25826.8 25826.8    0.00
 1999 058    44       0    5672  185301     172  185128  185128     0.0    0.00   699.1 25830.9    4.40 25826.5 25826.5    0.00
 1999 059    45       0    5672  185298     172  185126  185126     0.0    0.00   699.0 25830.6    4.40 25826.2 25826.2    0.00
 1999 060    46       0    5671  185296     172  185124  185124     0.0    0.00   699.0 25830.4    4.40 25825.9 25825.9    0.00
 1999 061    47       0    5671  185294     172  185121  185121     0.0    0.00   699.0 25830.1    4.40 25825.7 25825.7    0.00
 1999 062    48       0    5671  185291     172  185119  185119     0.0    0.00   699.0 25829.8    4.40 25825.4 25825.4    0.00
 1999 063    49       0    5671  185289     172  185117  185117     0.0    0.00   699.0 25829.5    4.40 25825.1 25825.1    0.00
 1999 064    50       0    5671  185286     172  185115  185115     0.0    0.00   699.0 25829.3    4.40 25824.9 25824.9    0.00
 1999 065    51       0    5671  185284     172  185112  185112     0.0    0.00   699.0 25829.0    4.40 25824.6 25824.6    0.00
 1999 066    52       0    5671  185282     172  185110  185110     0.0    0.00   699.0 25828.7    4.40 25824.3 25824.3    0.00
 1999 067    53       0    5670  185275     170  185106  185105     0.0    0.00   698.9 25828.3    4.41 25823.9 25823.9    0.00
 1999 068    54       0    5669  185268     167  185101  185101     0.0    0.00   698.8 25827.7    4.40 25823.3 25823.3    0.00
 1999 069    55       0    5668  185260     164  185096  185096     0.0    0.00   698.7 25827.2    4.39 25822.8 25822.8    0.00
 1999 070    56       0    5667  185254     162  185092  185092     0.1    0.00   698.6 25826.7    4.37 25822.4 25822.4    0.00
 1999 071    57       0    5666  185248     160  185088  185088     0.1    0.00   698.5 25826.3    4.36 25821.9 25821.9    0.00
 1999 072    58       0    5665  185242     158  185084  185084     0.1    0.00   698.5 25825.8    4.35 25821.5 25821.5    0.00
 1999 073    59       0    5665  185235     156  185080  185079     0.1    0.00   698.4 25825.4    4.33 25821.0 25821.0    0.00
 1999 074    60       0    5664  185229     154  185075  185075     0.1    0.00   698.3 25824.9    4.32 25820.6 25820.6    0.01
 1999 075    61       0    5663  185224     152  185072  185072     0.2    0.00   698.2 25824.5    4.30 25820.2 25820.2    0.01
 1999 076    62       0    5662  185218     150  185068  185067     0.2    0.00   698.1 25824.0    4.28 25819.7 25819.7    0.01
 1999 077    63       0    5661  185213     149  185064  185064     0.3    0.00   698.1 25823.6    4.27 25819.4 25819.3    0.01
 1999 078    64       0    5661  185208     147  185061  185060     0.3    0.00   698.0 25823.2    4.25 25819.0 25819.0    0.01
 1999 079    65       0    5660  185203     146  185057  185057     0.3    0.00   697.9 25822.8    4.24 25818.6 25818.5    0.01
 1999 080    66       0    5659  185197     144  185053  185052     0.4    0.00   697.9 25822.3    4.22 25818.1 25818.1    0.01
 1999 081    67       0    5658  185190     142  185048  185047     0.4    0.00   697.8 25821.7    4.20 25817.5 25817.5    0.01
 1999 082    68       0    5657  185183     140  185043  185042     0.5    0.00   697.7 25821.1    4.17 25817.0 25816.9    0.01
 1999 083    69       0    5656  185176     139  185038  185037     0.6    0.00   697.6 25820.5    4.15 25816.4 25816.4    0.02
 1999 084    70       0    5655  185170     137  185033  185032     0.6    0.00   697.5 25819.9    4.12 25815.8 25815.8    0.02
 1999 085    71       0    5655  185163     136  185028  185027     0.7    0.00   697.4 25819.3    4.10 25815.2 25815.2    0.02
 1999 086    72       0    5654  185158     135  185023  185022     0.9    0.00   697.4 25818.8    4.08 25814.7 25814.7    0.02
 1999 087    73       0    5653  185151     133  185018  185017     1.0    0.00   697.3 25818.2    4.06 25814.2 25814.2    0.02
 1999 088    74       0    5652  185145     132  185014  185013     1.1    0.00   697.2 25817.7    4.04 25813.7 25813.6    0.03
 1999 089    75       0    5651  185139     130  185009  185008     1.2    0.00   697.1 25817.2    4.02 25813.1 25813.1    0.03
 1999 090    76       0    5650  185133     129  185005  185003     1.3    0.00   697.0 25816.6    3.99 25812.6 25812.6    0.03
 1999 091    77       0    5650  185128     127  185000  184999     1.5    0.00   697.0 25816.1    3.96 25812.1 25812.1    0.03
 1999 092    78       0    5649  185122     126  184996  184994     1.6    0.00   696.9 25815.6    3.94 25811.6 25811.6    0.03
 1999 093    79       0    5648  185116     125  184991  184990     1.7    0.00   696.8 25815.0    3.92 25811.1 25811.1    0.04
 1999 094    80       0    5647  185111     124  184987  184985     1.9    0.00   696.7 25814.5    3.89 25810.6 25810.6    0.04
 1999 095    81       0    5647  185106     123  184983  184981     2.0    0.00   696.7 25814.1    3.87 25810.2 25810.2    0.04
 1999 096    82       0    5646  185101     122  184979  184977     2.2    0.00   696.6 25813.6    3.85 25809.8 25809.7    0.05
 1999 097    83       0    5645  185096     121  184976  184973     2.4    0.00   696.6 25813.2    3.83 25809.3 25809.3    0.05
 1999 098    84       0    5644  185091     119  184972  184969     2.5    0.00   696.5 25812.7    3.81 25808.9 25808.8    0.05
 1999 099    85       0    5644  185086     118  184968  184965     2.7    0.00   696.4 25812.2    3.78 25808.4 25808.4    0.05
 1999 100    86       0    5643  185081     117  184964  184961     2.9    0.00   696.4 25811.7    3.75 25808.0 25807.9    0.06
 1999 101    87       0    5642  185076     116  184960  184957     3.0    0.00   696.3 25811.2    3.72 25807.5 25807.5    0.06
 1999 102    88       0    5641  185071     115  184956  184952     3.2    0.00   696.2 25810.8    3.70 25807.1 25807.0    0.06
 1999 103    89       0    5641  185066     114  184951  184948     3.4    0.00   696.2 25810.3    3.68 25806.6 25806.5    0.07
 1999 104    90       0    5640  185060     113  184947  184944     3.5    0.00   696.1 25809.8    3.65 25806.1 25806.1    0.07
 1999 105    91       0    5639  185055     112  184943  184940     3.7    0.00   696.0 25809.3    3.63 25805.7 25805.6    0.07
 1999 106    92       0    5638  185051     111  184940  184936     3.9    0.00   696.0 25808.9    3.60 25805.3 25805.2    0.08
 1999 107    93       0    5638  185046     110  184936  184932     4.1    0.00   695.9 25808.4    3.57 25804.9 25804.8    0.08
 1999 108    94       0    5637  185042     109  184933  184928     4.3    0.00   695.8 25808.0    3.54 25804.5 25804.4    0.09
 1999 109    95       0    5637  185038     108  184930  184925     4.6    0.00   695.8 25807.6    3.52 25804.1 25804.0    0.09
 1999 110    96       0    5636  185034     108  184926  184922     4.8    0.00   695.7 25807.2    3.51 25803.7 25803.6    0.10
 1999 111    97       0    5636  185030     107  184923  184918     5.1    0.00   695.7 25806.8    3.49 25803.3 25803.2    0.10
 1999 112    98       0    5635  185026     106  184920  184915     5.4    0.00   695.6 25806.4    3.48 25803.0 25802.8    0.11
 1999 113    99       0    5634  185022     106  184917  184911     5.6    0.00   695.6 25806.0    3.45 25802.6 25802.5    0.12
 1999 114   100       0    5633  185018     105  184914  184908     5.9    0.00   695.5 25805.6    3.43 25802.2 25802.1    0.12
 1999 115   101       0    5633  185014     104  184910  184904     6.3    0.00   695.4 25805.2    3.40 25801.8 25801.7    0.13
 1999 116   102       0    5632  185010     103  184908  184901     6.6    0.00   695.4 25804.9    3.38 25801.5 25801.4    0.14
 1999 117   103       0    5631  185007     102  184905  184898     6.9    0.00   695.3 25804.5    3.35 25801.2 25801.0    0.14
 1999 118   104       0    5631  185004     101  184903  184895     7.3    0.00   695.3 25804.2    3.32 25800.9 25800.7    0.15
 1999 119   105       0    5630  185000     100  184900  184893     7.6    0.00   695.2 25803.9    3.30 25800.6 25800.4    0.16
 1999 120   106       0    5630  184997      99  184898  184890     8.0    0.00   695.2 25803.6    3.27 25800.3 25800.1    0.17
 1999 121   107       0    5629  184994      99  184895  184887     8.3    0.00   695.1 25803.2    3.25 25800.0 25799.8    0.17
 1999 122   108       0    5629  184991      98  184892  184884     8.7    0.00   695.1 25802.9    3.23 25799.7 25799.5    0.18
 1999 123   109       0    5628  184987      98  184889  184880     9.0    0.00   695.0 25802.5    3.21 25799.3 25799.1    0.19
 1999 124   110       0    5627  184983      97  184886  184877     9.3    0.00   695.0 25802.2    3.19 25799.0 25798.8    0.19
 1999 125   111       0    5627  184980      96  184884  184874     9.6    0.00   694.9 25801.8    3.17 25798.7 25798.4    0.20
 1999 126   112       0    5626  184976      95  184881  184871     9.9    0.00   694.9 25801.5    3.14 25798.3 25798.1    0.21
 1999 127   113       0    5625  184972      95  184878  184868    10.2    0.00   694.8 25801.1    3.12 25798.0 25797.8    0.21
 1999 128   114       0    5625  184969      94  184875  184865    10.6    0.00   694.8 25800.8    3.09 25797.7 25797.5    0.22
 1999 129   115       0    5624  184966      93  184873  184862    10.9    0.00   694.7 25800.5    3.07 25797.4 25797.2    0.23
 1999 130   116       0    5624  184963      93  184870  184859    11.2    0.00   694.7 25800.2    3.05 25797.1 25796.9    0.24
 1999 131   117       0    5623  184960      92  184868  184857    11.5    0.00   694.6 25799.9    3.04 25796.8 25796.6    0.24
 1999 132   118       0    5623  184958      92  184866  184854    11.8    0.00   694.6 25799.6    3.03 25796.6 25796.3    0.25
 1999 133   119       0    5622  184955      92  184864  184852    12.2    0.00   694.6 25799.3    3.01 25796.3 25796.1    0.26
 1999 134   120       0    5622  184953      91  184862  184849    12.5    0.00   694.5 25799.1    3.00 25796.1 25795.8    0.26
 1999 135   121       0    5622  184951      91  184860  184847    12.8    0.00   694.5 25798.8    2.99 25795.8 25795.6    0.27
 1999 136   122       0    5621  184949      91  184858  184845    13.1    0.00   694.5 25798.6    2.98 25795.6 25795.3    0.28
 1999 137   123       0    5621  184947      91  184856  184843    13.4    0.00   694.4 25798.3    2.97 25795.4 25795.1    0.29
 1999 138   124       0    5621  184945      90  184854  184841    13.7    0.00   694.4 25798.1    2.97 25795.1 25794.9    0.29
 1999 139   125       0    5620  184943      90  184853  184838    14.0    0.00   694.4 25797.9    2.96 25794.9 25794.6    0.30
 1999 140   126       0    5620  184941      90  184851  184836    14.3    0.00   694.4 25797.7    2.96 25794.7 25794.4    0.31
 1999 141   127       0    5620  184939      90  184849  184835    14.6    0.00   694.3 25797.4    2.95 25794.5 25794.2    0.32
 1999 142   128       0    5619  184938      90  184848  184833    14.9    0.00   694.3 25797.2    2.95 25794.3 25794.0    0.32
 1999 143   129       0    5619  184935      90  184845  184831    14.7    0.00   694.3 25797.0    2.95 25794.1 25793.8    0.32
 1999 144   130       0    5619  184933      90  184843  184829    14.5    0.00   694.3 25796.8    2.95 25793.9 25793.6    0.31
 1999 145   131       0    5619  184931      90  184841  184827    14.2    0.00   694.3 25796.6    2.95 25793.7 25793.4    0.30

*DSSAT Cropping System Model Ver. 4.5.1.023 -Stub         AUG 09, 2014; 00:37:49
                                                                                
*RUN   4        : MACH0004_1                MZCER045 MACH0004    1              
 MODEL          : MZCER045 - Maize                                              
 EXPERIMENT     : MACH0004 MZ                                                   
 DATA PATH      :                                                               
 TREATMENT  1   : MACH0004_1                MZCER045                            
  
@YEAR DOY   DAS    OMAC    SCDD    SOCD    SC0D    SCTD   SOMCT    LCTD    ONAC    SNDD    SOND    SN0D    SNTD   SOMNT    LNTD
 1999 254     0       0    5688  185447     200  185247  185247     0.0    0.00   700.6 25844.8    4.40 25840.4 25840.4    0.00
 1999 255     1       0    5687  185440     197  185243  185243     0.0    0.00   700.5 25844.4    4.41 25840.0 25840.0    0.00
 1999 256     2       0    5686  185434     195  185240  185240     0.0    0.00   700.5 25844.0    4.42 25839.6 25839.6    0.00
 1999 257     3       0    5685  185429     192  185236  185236     0.0    0.00   700.4 25843.6    4.42 25839.2 25839.2    0.00
 1999 258     4       0    5685  185424     191  185233  185233     0.0    0.00   700.3 25843.2    4.42 25838.8 25838.8    0.00
 1999 259     5       0    5684  185420     190  185230  185230     0.0    0.00   700.3 25842.9    4.42 25838.5 25838.5    0.00
 1999 260     6       0    5684  185416     189  185227  185227     0.0    0.00   700.2 25842.6    4.42 25838.1 25838.1    0.00
 1999 261     7       0    5683  185413     188  185225  185225     0.0    0.00   700.2 25842.2    4.42 25837.8 25837.8    0.00
 1999 262     8       0    5683  185409     187  185222  185222     0.0    0.00   700.1 25841.9    4.42 25837.5 25837.5    0.00
 1999 263     9       0    5682  185406     187  185219  185219     0.0    0.00   700.1 25841.6    4.42 25837.2 25837.2    0.00
 1999 264    10       0    5682  185404     187  185217  185217     0.0    0.00   700.1 25841.3    4.42 25836.9 25836.9    0.00
 1999 265    11       0    5682  185401     187  185214  185214     0.0    0.00   700.0 25841.0    4.42 25836.6 25836.6    0.00
 1999 266    12       0    5681  185398     187  185212  185212     0.0    0.00   700.0 25840.7    4.42 25836.3 25836.3    0.00
 1999 267    13       0    5681  185396     186  185209  185209     0.0    0.00   699.9 25840.4    4.42 25836.0 25836.0    0.00
 1999 268    14       0    5680  185393     186  185207  185207     0.0    0.00   699.9 25840.1    4.42 25835.7 25835.7    0.00
 1999 269    15       0    5680  185390     186  185204  185204     0.0    0.00   699.9 25839.8    4.42 25835.4 25835.4    0.00
 1999 270    16       0    5680  185388     186  185201  185201     0.0    0.00   699.8 25839.5    4.42 25835.1 25835.1    0.00
 1999 271    17       0    5679  185385     186  185199  185199     0.0    0.00   699.8 25839.2    4.42 25834.8 25834.8    0.00
 1999 272    18       0    5679  185382     186  185196  185196     0.0    0.00   699.8 25838.9    4.42 25834.5 25834.5    0.00
 1999 273    19       0    5679  185380     186  185194  185194     0.0    0.00   699.7 25838.6    4.42 25834.2 25834.2    0.00
 1999 274    20       0    5678  185377     186  185191  185191     0.0    0.00   699.7 25838.3    4.42 25833.9 25833.9    0.00
 1999 275    21       0    5678  185374     186  185189  185189     0.0    0.00   699.7 25838.0    4.42 25833.6 25833.6    0.00
 1999 276    22       0    5678  185372     185  185186  185186     0.0    0.00   699.6 25837.8    4.42 25833.3 25833.3    0.00
 1999 277    23       0    5677  185369     185  185184  185184     0.0    0.00   699.6 25837.5    4.42 25833.1 25833.1    0.00
 1999 278    24     153    5677  185428     216  185212  185182    30.3    7.37   699.6 25844.5    8.11 25836.4 25832.8    3.65
 1999 279    25     153    5676  185425     216  185209  185179    30.0    7.37   699.5 25844.2    8.10 25836.1 25832.5    3.61
 1999 280    26     153    5676  185423     216  185207  185177    29.8    7.37   699.5 25843.9    8.10 25835.8 25832.3    3.57
 1999 281    27     153    5676  185420     215  185205  185175    29.5    7.37   699.5 25843.6    8.09 25835.6 25832.0    3.54
 1999 282    28     153    5676  185418     215  185203  185173    29.3    7.37   699.5 25843.4    8.09 25835.3 25831.8    3.51
 1999 283    29     153    5676  185416     215  185201  185172    29.1    7.37   699.4 25843.1    8.09 25835.0 25831.6    3.48
 1999 284    30     153    5676  185414     215  185199  185170    28.9    7.37   699.4 25842.9    8.08 25834.8 25831.3    3.45
 1999 285    31     153    5676  185412     215  185197  185168    28.7    7.37   699.4 25842.6    8.08 25834.5 25831.1    3.42
 1999 286    32     153    5675  185409     215  185194  185166    28.5    7.37   699.4 25842.4    8.08 25834.3 25830.9    3.39
 1999 287    33     153    5675  185407     215  185192  185164    28.3    7.37   699.4 25842.1    8.07 25834.0 25830.7    3.37
 1999 288    34     153    5675  185405     215  185190  185162    28.1    7.37   699.4 25841.8    8.07 25833.8 25830.4    3.34
 1999 289    35     153    5675  185403     215  185188  185160    28.0    7.37   699.4 25841.6    8.06 25833.5 25830.2    3.32
 1999 290    36     153    5675  185400     214  185186  185158    27.8    7.37   699.3 25841.3    8.06 25833.2 25829.9    3.30
 1999 291    37     153    5675  185398     214  185184  185156    27.6    7.37   699.3 25841.0    8.06 25833.0 25829.7    3.27
 1999 292    38     153    5675  185396     214  185182  185154    27.5    7.37   699.3 25840.8    8.05 25832.7 25829.5    3.25
 1999 293    39     153    5675  185394     214  185180  185152    27.3    7.37   699.3 25840.5    8.05 25832.5 25829.2    3.23
 1999 294    40     153    5674  185392     214  185178  185150    27.2    7.37   699.3 25840.3    8.04 25832.2 25829.0    3.21
 1999 295    41     153    5674  185389     214  185175  185148    27.1    7.37   699.3 25840.0    8.04 25832.0 25828.8    3.19
 1999 296    42     153    5674  185387     214  185173  185146    26.9    7.37   699.3 25839.7    8.03 25831.7 25828.5    3.17
 1999 297    43     153    5674  185385     213  185171  185144    26.8    7.37   699.3 25839.5    8.03 25831.4 25828.3    3.15
 1999 298    44     153    5674  185382     213  185169  185142    26.7    7.37   699.3 25839.2    8.02 25831.2 25828.0    3.13
 1999 299    45     153    5674  185380     213  185167  185140    26.5    7.37   699.2 25838.9    8.02 25830.9 25827.8    3.12
 1999 300    46     153    5674  185372     209  185163  185137    25.9    7.37   699.2 25838.3    7.89 25830.4 25827.4    3.02
 1999 301    47     153    5673  185365     205  185160  185134    25.3    7.37   699.2 25837.8    7.75 25830.0 25827.1    2.94
 1999 302    48     153    5673  185358     201  185157  185132    24.8    7.37   699.2 25837.3    7.63 25829.7 25826.8    2.88
 1999 303    49     153    5673  185353     199  185154  185130    24.5    7.37   699.1 25836.9    7.53 25829.4 25826.5    2.83
 1999 304    50     153    5673  185348     196  185152  185127    24.2    7.37   699.1 25836.5    7.45 25829.0 25826.3    2.78
 1999 305    51     153    5673  185344     194  185149  185125    23.9    7.37   699.1 25836.1    7.38 25828.8 25826.0    2.75
 1999 306    52     153    5673  185340     193  185147  185123    23.7    7.37   699.1 25835.8    7.32 25828.5 25825.8    2.72
 1999 307    53     153    5673  185336     191  185145  185121    23.5    7.37   699.1 25835.5    7.27 25828.2 25825.5    2.69
 1999 308    54     153    5672  185333     190  185143  185119    23.3    7.37   699.1 25835.2    7.23 25827.9 25825.3    2.67
 1999 309    55     153    5672  185326     188  185138  185116    22.6    7.37   699.0 25834.6    7.16 25827.4 25824.9    2.56
 1999 310    56     153    5671  185319     185  185133  185112    21.7    7.37   698.9 25833.9    7.07 25826.9 25824.4    2.44
 1999 311    57     153    5671  185312     183  185129  185108    21.0    7.37   698.9 25833.4    6.98 25826.4 25824.1    2.34
 1999 312    58     153    5670  185306     181  185125  185105    20.3    7.37   698.8 25832.8    6.90 25825.9 25823.7    2.24
 1999 313    59     153    5669  185299     179  185121  185101    19.5    7.37   698.8 25832.2    6.81 25825.4 25823.2    2.13
 1999 314    60     153    5669  185292     176  185116  185097    18.8    7.37   698.7 25831.6    6.72 25824.9 25822.8    2.03
 1999 315    61     153    5668  185286     174  185112  185094    18.2    7.37   698.6 25831.0    6.64 25824.4 25822.4    1.94
 1999 316    62     153    5667  185280     172  185108  185090    17.7    7.37   698.6 25830.5    6.57 25823.9 25822.1    1.86
 1999 317    63     153    5667  185274     170  185104  185087    17.1    7.37   698.5 25830.0    6.50 25823.5 25821.7    1.78
 1999 318    64     153    5666  185268     168  185099  185083    16.6    7.37   698.4 25829.4    6.43 25822.9 25821.2    1.70
 1999 319    65     153    5666  185263     167  185096  185080    16.2    7.37   698.4 25828.9    6.37 25822.6 25820.9    1.65
 1999 320    66     153    5665  185258     165  185093  185077    16.0    7.37   698.3 25828.5    6.31 25822.2 25820.6    1.60
 1999 321    67     153    5665  185253     164  185090  185074    15.7    7.37   698.3 25828.0    6.26 25821.8 25820.2    1.55
 1999 322    68     153    5664  185249     162  185086  185071    15.5    7.37   698.2 25827.6    6.21 25821.4 25819.9    1.51
 1999 323    69     153    5664  185244     161  185083  185068    15.3    7.37   698.2 25827.2    6.16 25821.0 25819.5    1.47
 1999 324    70     153    5663  185240     160  185080  185065    15.2    7.37   698.1 25826.7    6.11 25820.6 25819.2    1.43
 1999 325    71     153    5663  185236     159  185077  185062    15.1    7.37   698.1 25826.3    6.07 25820.2 25818.8    1.39
 1999 326    72     153    5662  185231     157  185074  185059    15.1    7.37   698.0 25825.8    6.02 25819.8 25818.5    1.36
 1999 327    73     153    5662  185227     156  185071  185055    15.1    7.37   698.0 25825.4    5.97 25819.4 25818.1    1.32
 1999 328    74     153    5661  185223     155  185068  185052    15.1    7.37   698.0 25825.0    5.92 25819.1 25817.8    1.30
 1999 329    75     153    5661  185219     154  185065  185050    15.3    7.37   697.9 25824.6    5.88 25818.7 25817.4    1.27
 1999 330    76     153    5660  185215     153  185062  185047    15.5    7.37   697.9 25824.2    5.84 25818.4 25817.1    1.25
 1999 331    77     153    5660  185211     152  185060  185044    15.7    7.37   697.8 25823.8    5.80 25818.0 25816.8    1.23
 1999 332    78     153    5660  185208     151  185057  185041    16.0    7.37   697.8 25823.4    5.75 25817.7 25816.5    1.21
 1999 333    79     153    5659  185204     150  185055  185038    16.3    7.37   697.7 25823.0    5.71 25817.3 25816.1    1.19
 1999 334    80     153    5659  185201     149  185052  185035    16.5    7.37   697.7 25822.6    5.67 25817.0 25815.8    1.17
 1999 335    81     153    5658  185196     147  185049  185032    16.7    7.37   697.6 25822.2    5.62 25816.6 25815.4    1.14
 1999 336    82     153    5658  185192     146  185046  185029    17.0    7.37   697.6 25821.7    5.57 25816.1 25815.0    1.12
 1999 337    83     153    5657  185188     145  185043  185025    17.2    7.37   697.5 25821.3    5.53 25815.7 25814.7    1.10
 1999 338    84     153    5656  185183     144  185039  185022    17.4    7.37   697.5 25820.8    5.48 25815.3 25814.2    1.07
 1999 339    85     153    5656  185178     143  185035  185017    17.6    7.37   697.4 25820.2    5.43 25814.8 25813.8    1.04
 1999 340    86     153    5655  185172     141  185031  185013    17.8    7.37   697.4 25819.7    5.37 25814.3 25813.3    1.01
 1999 341    87     153    5654  185167     140  185027  185009    18.1    7.37   697.3 25819.1    5.32 25813.8 25812.8    0.99
 1999 342    88     153    5654  185163     139  185024  185005    18.5    7.37   697.2 25818.6    5.28 25813.3 25812.4    0.97
 1999 343    89     153    5653  185158     138  185020  185002    18.9    7.37   697.2 25818.1    5.24 25812.9 25811.9    0.96
 1999 344    90     153    5653  185154     137  185017  184998    19.3    7.37   697.1 25817.6    5.20 25812.4 25811.5    0.94
 1999 345    91     153    5652  185149     136  185013  184994    19.6    7.37   697.1 25817.1    5.15 25811.9 25811.0    0.92
 1999 346    92     153    5652  185144     135  185010  184990    20.0    7.37   697.0 25816.6    5.10 25811.5 25810.6    0.90
 1999 347    93     153    5651  185139     133  185006  184986    20.3    7.37   697.0 25816.0    5.05 25811.0 25810.1    0.88
 1999 348    94     153    5650  185134     132  185002  184981    20.7    7.37   696.9 25815.5    5.00 25810.5 25809.6    0.86
 1999 349    95     153    5649  185129     131  184998  184977    21.0    7.37   696.8 25814.9    4.94 25810.0 25809.1    0.84
 1999 350    96     153    5649  185124     129  184994  184973    21.5    7.37   696.8 25814.3    4.89 25809.5 25808.6    0.82
 1999 351    97     153    5648  185119     128  184991  184969    21.9    7.37   696.7 25813.8    4.84 25809.0 25808.2    0.81
 1999 352    98     153    5648  185115     127  184987  184965    22.4    7.37   696.7 25813.3    4.80 25808.5 25807.7    0.80
 1999 353    99     153    5647  185111     127  184984  184961    22.9    7.37   696.6 25812.8    4.76 25808.1 25807.3    0.79
 1999 354   100     153    5646  185106     126  184981  184957    23.3    7.37   696.5 25812.3    4.73 25807.6 25806.8    0.78
 1999 355   101     153    5646  185102     125  184977  184954    23.8    7.37   696.5 25811.9    4.68 25807.2 25806.4    0.77
 1999 356   102     153    5645  185098     124  184974  184950    24.3    7.37   696.5 25811.4    4.65 25806.8 25806.0    0.77
 1999 357   103     153    5645  185094     123  184971  184947    24.7    7.37   696.4 25811.0    4.61 25806.4 25805.6    0.77
 1999 358   104     153    5644  185091     122  184968  184943    25.2    7.37   696.4 25810.6    4.58 25806.0 25805.2    0.76
 1999 359   105     153    5644  185087     121  184965  184940    25.7    7.37   696.3 25810.1    4.54 25805.6 25804.8    0.76
 1999 360   106     153    5643  185083     120  184962  184936    26.1    7.37   696.3 25809.7    4.50 25805.2 25804.4    0.75
 1999 361   107     153    5643  185078     119  184959  184932    26.5    7.37   696.2 25809.2    4.46 25804.8 25804.0    0.75
 1999 362   108     153    5642  185074     118  184956  184929    26.8    7.37   696.1 25808.8    4.42 25804.3 25803.6    0.74
 1999 363   109     153    5641  185070     118  184952  184925    27.2    7.37   696.1 25808.3    4.38 25803.9 25803.2    0.74
 1999 364   110     153    5641  185066     117  184949  184921    27.6    7.37   696.0 25807.9    4.35 25803.5 25802.8    0.73
 1999 365   111     153    5640  185061     116  184945  184918    27.9    7.37   696.0 25807.4    4.31 25803.1 25802.3    0.73
 2000 001   112     153    5639  185057     115  184942  184914    28.2    7.37   695.9 25806.9    4.27 25802.6 25801.9    0.72
 2000 002   113     153    5639  185052     114  184938  184910    28.5    7.37   695.9 25806.4    4.23 25802.2 25801.4    0.72
 2000 003   114     153    5638  185048     113  184935  184906    28.8    7.37   695.8 25805.9    4.18 25801.7 25801.0    0.71
 2000 004   115     153    5638  185044     112  184932  184902    29.2    7.37   695.8 25805.5    4.14 25801.3 25800.6    0.71
 2000 005   116     153    5637  185040     111  184928  184899    29.7    7.37   695.7 25805.0    4.10 25800.9 25800.2    0.71
 2000 006   117     153    5637  185036     111  184926  184895    30.1    7.37   695.7 25804.6    4.07 25800.5 25799.8    0.71
 2000 007   118     153    5636  185033     110  184923  184892    30.7    7.37   695.6 25804.2    4.05 25800.2 25799.4    0.72
 2000 008   119     153    5636  185030     110  184920  184889    31.2    7.37   695.6 25803.8    4.02 25799.8 25799.1    0.72
 2000 009   120     153    5635  185027     109  184918  184886    31.8    7.37   695.5 25803.4    4.01 25799.4 25798.7    0.73
 2000 010   121     153    5635  185024     109  184915  184883    32.4    7.37   695.5 25803.1    3.99 25799.1 25798.3    0.74
 2000 011   122     153    5635  185021     109  184913  184880    33.0    7.37   695.5 25802.7    3.98 25798.7 25798.0    0.75
 2000 012   123     153    5634  185019     108  184911  184877    33.7    7.37   695.5 25802.4    3.97 25798.4 25797.6    0.76
 2000 013   124     153    5634  185017     108  184908  184874    34.4    7.37   695.4 25802.0    3.96 25798.1 25797.3    0.77
 2000 014   125     153    5634  185015     108  184906  184871    35.1    7.37   695.4 25801.7    3.96 25797.8 25797.0    0.78
 2000 015   126     153    5633  185012     108  184904  184868    35.8    7.37   695.4 25801.4    3.95 25797.4 25796.7    0.79
 2000 016   127     153    5633  185010     108  184902  184866    36.6    7.37   695.3 25801.1    3.95 25797.1 25796.3    0.81
 2000 017   128     153    5633  185008     108  184900  184863    37.3    7.37   695.3 25800.8    3.95 25796.8 25796.0    0.82
 2000 018   129     153    5632  185007     108  184899  184861    38.1    7.37   695.3 25800.5    3.95 25796.5 25795.7    0.83
 2000 019   130     153    5632  185005     108  184897  184858    38.9    7.37   695.3 25800.2    3.95 25796.2 25795.4    0.85
 2000 020   131     153    5632  185003     108  184895  184855    39.7    7.37   695.3 25799.9    3.95 25796.0 25795.1    0.86
 2000 021   132     153    5632  185001     108  184893  184853    40.5    7.37   695.2 25799.6    3.94 25795.7 25794.8    0.88
 2000 022   133     153    5632  185000     108  184892  184851    41.3    7.37   695.2 25799.3    3.94 25795.4 25794.5    0.89
 2000 023   134     153    5631  184998     108  184890  184848    42.1    7.37   695.2 25799.0    3.94 25795.1 25794.2    0.91
 2000 024   135     153    5631  184996     108  184888  184846    42.9    7.37   695.2 25798.8    3.94 25794.8 25793.9    0.92
 2000 025   136     153    5631  184994     107  184887  184843    43.6    7.37   695.2 25798.5    3.91 25794.5 25793.6    0.94
 2000 026   137     153    5631  184992     106  184886  184841    44.4    7.37   695.2 25798.2    3.89 25794.3 25793.3    0.95
 2000 027   138     153    5631  184990     106  184884  184839    45.3    7.37   695.1 25797.9    3.86 25794.0 25793.1    0.97
 2000 028   139     153    5630  184989     106  184883  184837    46.1    7.37   695.1 25797.7    3.85 25793.8 25792.8    0.99
 2000 029   140     153    5630  184987     105  184882  184835    46.9    7.37   695.1 25797.4    3.83 25793.6 25792.6    1.00
 2000 030   141     153    5630  184986     105  184881  184833    47.7    7.37   695.1 25797.1    3.82 25793.3 25792.3    1.02
 2000 031   142     153    5630  184984     105  184879  184831    48.6    7.37   695.1 25796.9    3.81 25793.1 25792.0    1.04
 2000 032   143     153    5630  184983     105  184878  184829    49.4    7.37   695.1 25796.6    3.80 25792.8 25791.8    1.06
 2000 033   144     153    5630  184982     105  184877  184827    50.3    7.37   695.1 25796.4    3.80 25792.6 25791.5    1.08
 2000 034   145     153    5630  184981     105  184876  184825    51.1    7.37   695.1 25796.2    3.79 25792.4 25791.3    1.10
 2000 035   146     153    5630  184980     104  184875  184823    52.0    7.37   695.1 25796.0    3.79 25792.2 25791.1    1.12
 2000 036   147     153    5629  184979     104  184874  184821    52.9    7.37   695.0 25795.7    3.79 25792.0 25790.8    1.14
 2000 037   148     153    5629  184976     104  184872  184819    52.3    7.37   695.0 25795.5    3.79 25791.7 25790.6    1.12
 2000 038   149     153    5629  184974     104  184869  184818    51.7    7.37   695.0 25795.2    3.79 25791.5 25790.3    1.10

*DSSAT Cropping System Model Ver. 4.5.1.023 -Stub         AUG 09, 2014; 00:37:49
                                                                                
*RUN   5        : MACH0006_1                MZCER045 MACH0006    1              
 MODEL          : MZCER045 - Maize                                              
 EXPERIMENT     : MACH0006 MZ                                                   
 DATA PATH      :                                                               
 TREATMENT  1   : MACH0006_1                MZCER045                            
  
@YEAR DOY   DAS    OMAC    SCDD    SOCD    SC0D    SCTD   SOMCT    LCTD    ONAC    SNDD    SOND    SN0D    SNTD   SOMNT    LNTD
 1999 284     0       0   10238   42200     200   42000   42000     0.0    0.00  1257.4  5344.8    4.40  5340.4  5340.4    0.00
 1999 285     1       0   10236   42193     197   41995   41995     0.0    0.00  1257.2  5344.4    4.41  5340.0  5340.0    0.00
 1999 286     2       0   10235   42186     195   41991   41991     0.0    0.00  1257.1  5344.0    4.41  5339.6  5339.6    0.00
 1999 287     3       0   10233   42180     193   41987   41987     0.0    0.00  1257.0  5343.6    4.42  5339.1  5339.1    0.00
 1999 288     4       0   10232   42174     191   41983   41983     0.0    0.00  1256.8  5343.2    4.42  5338.7  5338.7    0.00
 1999 289     5       0   10231   42169     190   41979   41979     0.0    0.00  1256.7  5342.8    4.42  5338.4  5338.4    0.00
 1999 290     6       0   10230   42164     189   41975   41975     0.0    0.00  1256.6  5342.4    4.42  5338.0  5338.0    0.00
 1999 291     7       0   10229   42160     188   41972   41972     0.0    0.00  1256.5  5342.1    4.42  5337.6  5337.6    0.00
 1999 292     8       0   10228   42156     187   41968   41968     0.0    0.00  1256.4  5341.7    4.42  5337.3  5337.3    0.00
 1999 293     9       0   10227   42152     187   41965   41965     0.0    0.00  1256.3  5341.4    4.42  5337.0  5337.0    0.00
 1999 294    10       0   10226   42148     186   41961   41961     0.0    0.00  1256.2  5341.1    4.42  5336.7  5336.7    0.00
 1999 295    11       0   10225   42144     186   41958   41958     0.0    0.00  1256.1  5340.8    4.42  5336.3  5336.3    0.00
 1999 296    12       0   10224   42141     186   41955   41955     0.0    0.00  1256.0  5340.4    4.42  5336.0  5336.0    0.00
 1999 297    13       0   10223   42137     186   41951   41951     0.0    0.00  1255.9  5340.1    4.42  5335.7  5335.7    0.00
 1999 298    14       0   10221   42133     185   41948   41948     0.0    0.00  1255.8  5339.8    4.42  5335.3  5335.3    0.00
 1999 299    15       0   10220   42129     185   41944   41944     0.0    0.00  1255.7  5339.4    4.42  5335.0  5335.0    0.00
 1999 300    16       0   10219   42120     181   41939   41939     0.0    0.00  1255.6  5338.9    4.43  5334.5  5334.5    0.00
 1999 301    17       0   10218   42112     177   41934   41934     0.0    0.00  1255.5  5338.5    4.43  5334.1  5334.1    0.00
[...]
 1999 218   144       0   10128  200614      93  200521  200436    84.7    0.00  1247.6 27745.6    3.09 27742.5 27740.6    1.94
 1999 219   145       0   10128  200614      93  200521  200436    84.5    0.00  1247.6 27745.6    3.09 27742.5 27740.6    1.94
 1999 220   146       0   10128  200613      93  200520  200436    84.4    0.00  1247.6 27745.6    3.09 27742.5 27740.6    1.93

*DSSAT Cropping System Model Ver. 4.5.1.023 -Stub         AUG 09, 2014; 00:37:52
                                                                                
*RUN  47        : MACH0256_1                MZCER045 MACH0256    1              
 MODEL          : MZCER045 - Maize                                              
 EXPERIMENT     : MACH0256 MZ                                                   
 DATA PATH      :                                                               
 TREATMENT  1   : MACH0256_1                MZCER045                            
  
@YEAR DOY   DAS    OMAC    SCDD    SOCD    SC0D    SCTD   SOMCT    LCTD    ONAC    SNDD    SOND    SN0D    SNTD   SOMNT    LNTD
 1999 074     0       0   10238  201047     200  200847  200847     0.0    0.00  1257.4 27785.7    4.40 27781.3 27781.3    0.00
 1999 075     1       0   10237  201040     198  200843  200843     0.0    0.00  1257.3 27785.2    4.41 27780.8 27780.8    0.00
 1999 076     2       0   10236  201034     196  200839  200839     0.0    0.00  1257.2 27784.7    4.41 27780.3 27780.3    0.00
 1999 077     3       0   10235  201028     194  200834  200834     0.0    0.00  1257.1 27784.3    4.42 27779.9 27779.9    0.00
 1999 078     4       0   10233  201021     191  200830  200830     0.0    0.00  1256.9 27783.8    4.42 27779.3 27779.3    0.00
 1999 079     5       0   10232  201013     188  200825  200825     0.0    0.00  1256.8 27783.2    4.43 27778.8 27778.8    0.00
 1999 080     6       0   10231  201005     185  200820  200820     0.0    0.00  1256.7 27782.7    4.43 27778.3 27778.3    0.00
 1999 081     7       0   10230  200998     182  200816  200816     0.0    0.00  1256.6 27782.3    4.43 27777.8 27777.8    0.00
 1999 082     8       0   10229  200992     180  200812  200812     0.0    0.00  1256.5 27781.8    4.43 27777.4 27777.4    0.00
 1999 083     9       0   10227  200986     178  200808  200808     0.0    0.00  1256.3 27781.4    4.43 27776.9 27776.9    0.00
 1999 084    10       0   10226  200980     176  200804  200804     0.0    0.00  1256.2 27780.9    4.42 27776.5 27776.5    0.00
 1999 085    11       0   10224  200973     174  200799  200799     0.0    0.00  1256.1 27780.4    4.42 27775.9 27775.9    0.00
 1999 086    12       0   10223  200965     172  200793  200793     0.0    0.00  1255.9 27779.8    4.42 27775.3 27775.3    0.00
 1999 087    13       0   10221  200957     170  200787  200787     0.0    0.00  1255.7 27779.1    4.41 27774.7 27774.7    0.00
 1999 088    14       0   10219  200948     167  200781  200781     0.0    0.00  1255.5 27778.4    4.40 27774.0 27774.0    0.00
 1999 089    15       0   10217  200939     165  200774  200774     0.0    0.00  1255.4 27777.8    4.39 27773.4 27773.4    0.00
 1999 090    16       0   10216  200931     162  200768  200768     0.0    0.00  1255.2 27777.1    4.38 27772.7 27772.7    0.00
 1999 091    17       0   10214  200923     161  200762  200762     0.0    0.00  1255.0 27776.5    4.37 27772.1 27772.1    0.00
 1999 092    18       0   10212  200915     159  200756  200756     0.0    0.00  1254.9 27775.9    4.36 27771.5 27771.5    0.00
 1999 093    19       0   10210  200906     156  200750  200750     0.0    0.00  1254.7 27775.2    4.34 27770.9 27770.9    0.00
 1999 094    20       0   10209  200899     155  200744  200744     0.0    0.00  1254.5 27774.6    4.33 27770.3 27770.3    0.00
 1999 095    21       0   10208  200892     153  200739  200739     0.0    0.00  1254.4 27774.1    4.31 27769.8 27769.8    0.00
 1999 096    22       0   10206  200886     152  200734  200734     0.0    0.00  1254.3 27773.6    4.30 27769.3 27769.3    0.00
 1999 097    23       0   10205  200879     150  200729  200729     0.0    0.00  1254.2 27773.1    4.29 27768.8 27768.8    0.00
 1999 098    24      10   10202  200873     150  200724  200722     1.9    0.48  1254.0 27772.8    4.50 27768.3 27768.1    0.23
 1999 099    25      10   10200  200864     148  200717  200715     1.8    0.48  1253.7 27772.1    4.46 27767.6 27767.4    0.22
 1999 100    26      10   10197  200855     145  200709  200707     1.8    0.48  1253.5 27771.3    4.42 27766.9 27766.7    0.21
 1999 101    27      10   10195  200846     144  200702  200701     1.7    0.48  1253.3 27770.6    4.38 27766.2 27766.0    0.20
 1999 102    28      10   10193  200837     142  200695  200694     1.6    0.48  1253.1 27769.9    4.34 27765.6 27765.4    0.19
 1999 103    29      10   10190  200828     140  200688  200687     1.6    0.48  1252.8 27769.2    4.31 27764.9 27764.7    0.18
 1999 104    30      10   10187  200819     138  200681  200679     1.5    0.48  1252.6 27768.5    4.27 27764.2 27764.0    0.17
 1999 105    31      10   10185  200810     136  200674  200673     1.4    0.48  1252.4 27767.8    4.23 27763.6 27763.4    0.16
 1999 106    32      10   10183  200802     134  200668  200667     1.4    0.48  1252.2 27767.2    4.19 27763.0 27762.8    0.15
 1999 107    33      10   10181  200795     133  200662  200661     1.3    0.48  1252.0 27766.6    4.15 27762.4 27762.3    0.15
 1999 108    34      10   10179  200788     132  200656  200655     1.3    0.48  1251.8 27766.0    4.12 27761.9 27761.7    0.14
 1999 109    35      10   10177  200781     131  200650  200649     1.3    0.48  1251.7 27765.4    4.10 27761.3 27761.2    0.14
 1999 110    36      10   10175  200774     130  200644  200643     1.2    0.48  1251.5 27764.9    4.08 27760.8 27760.7    0.13
 1999 111    37      10   10173  200768     129  200639  200637     1.2    0.48  1251.3 27764.3    4.06 27760.3 27760.2    0.13
 1999 112    38      10   10170  200760     128  200632  200631     1.1    0.48  1251.1 27763.7    4.04 27759.7 27759.6    0.12
 1999 113    39      10   10168  200752     126  200625  200624     1.1    0.48  1250.9 27763.1    4.00 27759.1 27759.0    0.12
 1999 114    40      10   10165  200743     125  200619  200618     1.0    0.48  1250.8 27762.5    3.96 27758.5 27758.4    0.11
 1999 115    41      10   10163  200735     123  200612  200611     1.0    0.48  1250.6 27761.9    3.92 27757.9 27757.8    0.10
 1999 116    42      10   10161  200728     121  200607  200606     1.0    0.48  1250.4 27761.3    3.88 27757.4 27757.3    0.10
 1999 117    43      10   10159  200721     120  200601  200600     0.9    0.48  1250.3 27760.8    3.84 27757.0 27756.9    0.10
 1999 118    44      10   10158  200714     119  200596  200595     0.9    0.48  1250.1 27760.3    3.81 27756.5 27756.4    0.09
 1999 119    45      10   10156  200708     117  200590  200589     0.9    0.48  1250.0 27759.8    3.77 27756.0 27755.9    0.09
 1999 120    46      10   10154  200701     116  200585  200584     0.9    0.48  1249.8 27759.3    3.73 27755.6 27755.5    0.08
 1999 121    47      10   10152  200694     115  200580  200579     0.9    0.48  1249.7 27758.8    3.70 27755.1 27755.1    0.08
 1999 122    48      10   10150  200688     114  200575  200574     0.9    0.48  1249.6 27758.4    3.67 27754.7 27754.6    0.08
 1999 123    49      10   10148  200682     113  200569  200568     0.9    0.48  1249.4 27757.9    3.64 27754.2 27754.2    0.08
 1999 124    50      10   10146  200674     111  200563  200562     0.9    0.48  1249.3 27757.3    3.61 27753.7 27753.7    0.08
 1999 125    51      10   10144  200667     110  200557  200556     0.9    0.48  1249.1 27756.8    3.57 27753.2 27753.2    0.07
 1999 126    52      10   10142  200660     109  200552  200551     0.9    0.48  1249.0 27756.3    3.53 27752.8 27752.7    0.07
 1999 127    53      10   10140  200654     108  200546  200545     1.0    0.48  1248.8 27755.8    3.49 27752.3 27752.2    0.07
 1999 128    54      10   10139  200648     107  200541  200540     1.0    0.48  1248.7 27755.3    3.46 27751.9 27751.8    0.07
 1999 129    55      10   10137  200643     106  200537  200536     1.1    0.48  1248.6 27755.0    3.44 27751.5 27751.4    0.07
 1999 130    56      10   10136  200639     105  200534  200532     1.2    0.48  1248.5 27754.6    3.43 27751.2 27751.1    0.07
 1999 131    57      10   10135  200635     105  200530  200529     1.4    0.48  1248.4 27754.3    3.41 27750.9 27750.8    0.08
 1999 132    58      10   10134  200630     104  200526  200525     1.6    0.48  1248.4 27754.0    3.40 27750.6 27750.5    0.08
 1999 133    59      10   10133  200625     103  200522  200520     1.7    0.48  1248.3 27753.6    3.38 27750.2 27750.1    0.09
 1999 134    60      10   10132  200620     102  200518  200516     2.0    0.48  1248.2 27753.1    3.35 27749.8 27749.7    0.09
 1999 135    61      10   10131  200615     101  200514  200511     2.2    0.48  1248.1 27752.7    3.33 27749.4 27749.3    0.10
 1999 136    62      10   10130  200610     101  200509  200507     2.5    0.48  1248.0 27752.2    3.30 27748.9 27748.8    0.10
 1999 137    63      10   10128  200604     100  200505  200502     2.8    0.48  1247.9 27751.8    3.28 27748.5 27748.4    0.11
 1999 138    64      10   10127  200600      99  200501  200497     3.1    0.48  1247.8 27751.4    3.26 27748.1 27748.0    0.12
 1999 139    65      10   10126  200595      98  200497  200493     3.5    0.48  1247.7 27751.0    3.24 27747.8 27747.6    0.13
 1999 140    66      10   10125  200591      98  200493  200489     4.0    0.48  1247.6 27750.6    3.22 27747.4 27747.2    0.14
 1999 141    67      10   10124  200587      98  200490  200485     4.5    0.48  1247.5 27750.3    3.21 27747.1 27746.9    0.15
 1999 142    68      10   10123  200583      97  200486  200481     5.0    0.48  1247.5 27749.9    3.20 27746.7 27746.5    0.17
 1999 143    69      10   10122  200578      96  200482  200477     5.5    0.48  1247.4 27749.4    3.18 27746.3 27746.1    0.18
 1999 144    70      10   10121  200573      96  200478  200472     6.0    0.48  1247.3 27749.0    3.16 27745.8 27745.6    0.19
 1999 145    71      10   10120  200568      95  200474  200467     6.6    0.48  1247.2 27748.5    3.14 27745.4 27745.2    0.20
 1999 146    72      10   10119  200563      94  200469  200462     7.1    0.48  1247.1 27748.0    3.11 27744.9 27744.7    0.22
 1999 147    73      10   10117  200558      93  200465  200458     7.8    0.48  1247.0 27747.6    3.08 27744.5 27744.2    0.23
 1999 148    74      10   10116  200554      92  200462  200454     8.4    0.48  1246.9 27747.2    3.06 27744.1 27743.8    0.25
 1999 149    75      10   10115  200551      92  200459  200450     9.1    0.48  1246.8 27746.8    3.04 27743.7 27743.5    0.26
 1999 150    76      10   10114  200548      92  200456  200446    10.0    0.48  1246.7 27746.5    3.03 27743.4 27743.2    0.28
 1999 151    77      10   10114  200545      91  200454  200443    10.8    0.48  1246.6 27746.2    3.01 27743.2 27742.9    0.30
 1999 152    78      10   10113  200543      91  200452  200441    11.7    0.48  1246.6 27745.9    3.00 27742.9 27742.6    0.32
 1999 153    79      10   10112  200541      91  200451  200438    12.6    0.48  1246.5 27745.7    3.00 27742.7 27742.3    0.34
 1999 154    80      10   10112  200540      90  200449  200436    13.5    0.48  1246.5 27745.4    2.99 27742.5 27742.1    0.36
 1999 155    81      10   10111  200538      90  200448  200433    14.5    0.48  1246.4 27745.2    2.99 27742.2 27741.9    0.38
 1999 156    82      10   10111  200537      90  200447  200431    15.5    0.48  1246.4 27745.0    2.97 27742.1 27741.7    0.40
 1999 157    83      10   10110  200536      90  200446  200430    16.5    0.48  1246.4 27744.8    2.96 27741.9 27741.5    0.42
 1999 158    84      10   10110  200535      89  200445  200428    17.7    0.48  1246.3 27744.7    2.96 27741.7 27741.3    0.45
 1999 159    85      10   10110  200534      89  200445  200426    18.8    0.48  1246.3 27744.5    2.95 27741.6 27741.1    0.47
 1999 160    86      10   10109  200534      89  200445  200425    19.9    0.48  1246.3 27744.4    2.94 27741.5 27741.0    0.49
 1999 161    87      10   10109  200534      89  200445  200424    21.1    0.48  1246.3 27744.3    2.94 27741.3 27740.8    0.52
 1999 162    88      10   10109  200534      89  200445  200422    22.3    0.48  1246.3 27744.2    2.94 27741.2 27740.7    0.54
 1999 163    89      10   10109  200534      89  200445  200421    23.5    0.48  1246.2 27744.1    2.94 27741.1 27740.6    0.57
 1999 164    90      10   10109  200534      89  200445  200420    24.6    0.48  1246.2 27744.0    2.93 27741.1 27740.5    0.59
 1999 165    91      10   10109  200534      89  200445  200419    25.9    0.48  1246.2 27743.9    2.93 27741.0 27740.4    0.62
 1999 166    92      10   10108  200535      89  200446  200419    27.1    0.48  1246.2 27743.9    2.93 27740.9 27740.3    0.64
 1999 167    93      10   10108  200535      89  200446  200418    28.3    0.48  1246.2 27743.8    2.93 27740.9 27740.2    0.67
 1999 168    94      10   10108  200536      89  200447  200417    29.6    0.48  1246.2 27743.8    2.93 27740.8 27740.1    0.70
 1999 169    95      10   10108  200536      89  200447  200417    30.8    0.48  1246.2 27743.7    2.93 27740.8 27740.1    0.73
 1999 170    96      10   10108  200537      89  200448  200416    32.1    0.48  1246.2 27743.7    2.93 27740.7 27740.0    0.75
 1999 171    97      10   10108  200538      89  200449  200416    33.3    0.48  1246.2 27743.6    2.93 27740.7 27739.9    0.78
 1999 172    98      10   10108  200538      89  200450  200415    34.6    0.48  1246.2 27743.6    2.93 27740.7 27739.9    0.81
 1999 173    99      10   10108  200539      89  200451  200415    35.8    0.48  1246.2 27743.6    2.93 27740.6 27739.8    0.84
 1999 174   100      10   10108  200540      89  200451  200414    37.1    0.48  1246.2 27743.5    2.93 27740.6 27739.7    0.86
 1999 175   101      10   10108  200541      89  200452  200414    38.4    0.48  1246.2 27743.5    2.93 27740.6 27739.7    0.89
 1999 176   102      10   10108  200542      89  200453  200413    39.6    0.48  1246.2 27743.5    2.92 27740.6 27739.6    0.92
 1999 177   103      10   10108  200543      89  200454  200413    40.9    0.48  1246.2 27743.5    2.92 27740.5 27739.6    0.95
 1999 178   104      10   10108  200543      89  200455  200413    42.1    0.48  1246.2 27743.5    2.92 27740.5 27739.6    0.98
 1999 179   105      10   10108  200544      89  200456  200412    43.4    0.48  1246.2 27743.4    2.92 27740.5 27739.5    1.01
 1999 180   106      10   10108  200545      89  200457  200412    44.6    0.48  1246.2 27743.4    2.92 27740.5 27739.5    1.03
 1999 181   107      10   10108  200546      88  200458  200412    45.9    0.48  1246.2 27743.4    2.92 27740.5 27739.4    1.06
 1999 182   108      10   10108  200547      88  200459  200412    47.1    0.48  1246.2 27743.4    2.92 27740.5 27739.4    1.09
 1999 183   109      10   10108  200548      88  200459  200411    48.3    0.48  1246.2 27743.4    2.92 27740.5 27739.3    1.12
 1999 184   110      10   10108  200549      88  200460  200411    49.5    0.48  1246.1 27743.4    2.92 27740.4 27739.3    1.15
 1999 185   111      10   10108  200550      88  200461  200411    50.7    0.48  1246.1 27743.4    2.92 27740.4 27739.3    1.18
 1999 186   112      10   10108  200551      88  200462  200410    51.9    0.48  1246.1 27743.3    2.92 27740.4 27739.2    1.20
 1999 187   113      10   10108  200551      88  200463  200410    53.1    0.48  1246.1 27743.3    2.92 27740.4 27739.2    1.23
 1999 188   114      10   10108  200552      88  200464  200410    54.3    0.48  1246.1 27743.3    2.92 27740.4 27739.1    1.26
 1999 189   115      10   10108  200553      88  200465  200409    55.4    0.48  1246.1 27743.3    2.92 27740.4 27739.1    1.29
 1999 190   116      10   10108  200554      88  200466  200409    56.6    0.48  1246.1 27743.3    2.92 27740.4 27739.1    1.32
 1999 191   117      10   10108  200555      88  200467  200409    57.8    0.48  1246.1 27743.3    2.91 27740.4 27739.0    1.35
 1999 192   118      10   10107  200556      88  200467  200409    58.9    0.48  1246.1 27743.3    2.91 27740.4 27739.0    1.37
 1999 193   119      10   10107  200557      88  200468  200408    60.1    0.48  1246.1 27743.3    2.91 27740.4 27739.0    1.40
 1999 194   120      10   10107  200557      88  200469  200408    61.2    0.48  1246.1 27743.3    2.91 27740.4 27738.9    1.43
 1999 195   121      10   10107  200558      88  200470  200408    62.4    0.48  1246.1 27743.3    2.91 27740.3 27738.9    1.46
 1999 196   122      10   10107  200559      88  200471  200407    63.5    0.48  1246.1 27743.2    2.91 27740.3 27738.9    1.49
 1999 197   123      10   10107  200560      88  200472  200407    64.6    0.48  1246.1 27743.2    2.91 27740.3 27738.8    1.51
 1999 198   124      10   10107  200561      88  200473  200407    65.7    0.48  1246.1 27743.2    2.91 27740.3 27738.8    1.54
 1999 199   125      10   10107  200561      88  200473  200407    66.8    0.48  1246.1 27743.2    2.91 27740.3 27738.7    1.57
 1999 200   126      10   10107  200562      88  200474  200406    67.9    0.48  1246.1 27743.2    2.91 27740.3 27738.7    1.60
 1999 201   127      10   10107  200563      88  200475  200406    69.0    0.48  1246.1 27743.2    2.91 27740.3 27738.7    1.62
 1999 202   128      10   10107  200564      88  200476  200406    70.0    0.48  1246.1 27743.2    2.91 27740.3 27738.6    1.65
 1999 203   129      10   10107  200565      88  200477  200406    71.1    0.48  1246.1 27743.2    2.91 27740.3 27738.6    1.68
 1999 204   130      10   10107  200566      88  200478  200405    72.2    0.48  1246.1 27743.2    2.91 27740.3 27738.6    1.71
 1999 205   131      10   10107  200566      88  200478  200405    73.3    0.48  1246.1 27743.2    2.90 27740.3 27738.6    1.74
 1999 206   132      10   10107  200567      88  200479  200405    74.4    0.48  1246.1 27743.2    2.90 27740.3 27738.5    1.76
 1999 207   133      10   10107  200568      88  200480  200405    75.4    0.48  1246.1 27743.2    2.90 27740.3 27738.5    1.79
 1999 208   134      10   10107  200569      88  200481  200404    76.5    0.48  1246.1 27743.2    2.90 27740.3 27738.5    1.82
 1999 209   135      10   10107  200570      88  200482  200404    77.5    0.48  1246.1 27743.2    2.90 27740.3 27738.4    1.85
 1999 210   136      10   10107  200571      88  200483  200404    78.6    0.48  1246.1 27743.2    2.90 27740.3 27738.4    1.88
 1999 211   137      10   10107  200571      88  200483  200404    79.6    0.48  1246.1 27743.2    2.90 27740.3 27738.4    1.90
 1999 212   138      10   10107  200572      88  200484  200404    80.6    0.48  1246.1 27743.2    2.90 27740.3 27738.4    1.93
 1999 213   139      10   10107  200573      88  200485  200403    81.7    0.48  1246.1 27743.2    2.90 27740.3 27738.3    1.96
 1999 214   140      10   10107  200574      88  200486  200403    82.7    0.48  1246.1 27743.2    2.90 27740.3 27738.3    1.99
 1999 215   141      10   10107  200575      88  200487  200403    83.7    0.48  1246.1 27743.2    2.90 27740.3 27738.3    2.01
 1999 216   142      10   10107  200575      88  200488  200403    84.7    0.48  1246.1 27743.2    2.90 27740.3 27738.3    2.04
 1999 217   143      10   10107  200576      88  200488  200403    85.7    0.48  1246.1 27743.2    2.90 27740.3 27738.2    2.07
 1999 218   144      10   10107  200576      88  200488  200402    85.6    0.48  1246.1 27743.2    2.90 27740.3 27738.2    2.06
 1999 219   145      10   10107  200575      88  200488  200402    85.4    0.48  1246.1 27743.1    2.90 27740.2 27738.2    2.06
 1999 220   146      10   10107  200575      88  200487  200402    85.3    0.48  1246.1 27743.1    2.90 27740.2 27738.2    2.06
